#------------------------------------------------------------------------------
#$Date: 2020-02-04 22:57:38 +0200 (Tue, 04 Feb 2020) $
#$Revision: 247838 $
#$URL: file:///home/coder/svn-repositories/cod/cif/1/55/23/1552310.cif $
#------------------------------------------------------------------------------
#
# This file is available in the Crystallography Open Database (COD),
# http://www.crystallography.net/
#
# All data on this site have been placed in the public domain by the
# contributors.
#
data_1552310
loop_
_publ_author_name
'Tan, Chen'
'Qasim, Muhammad'
'Pang, Wenmin'
'Chen, Changle'
_publ_section_title
;
 Ligand--metal secondary interactions in phosphine--sulfonate palladium
 and nickel catalyzed ethylene (co)polymerization
;
_journal_issue                   2
_journal_name_full               'Polymer Chemistry'
_journal_page_first              411
_journal_paper_doi               10.1039/C9PY00904C
_journal_volume                  11
_journal_year                    2020
_chemical_formula_moiety         'C33 H30 N O4 P Pd S2'
_chemical_formula_sum            'C33 H30 N O4 P Pd S2'
_chemical_formula_weight         706.07
_space_group_crystal_system      triclinic
_space_group_IT_number           2
_space_group_name_Hall           '-P 1'
_space_group_name_H-M_alt        'P -1'
_symmetry_space_group_name_Hall  '-P 1'
_symmetry_space_group_name_H-M   'P -1'
_atom_sites_solution_hydrogens   geom
_atom_sites_solution_primary     dual
_audit_creation_date             2019-08-17
_audit_creation_method
;
Olex2 1.2
(compiled 2018.05.29 svn.r3508 for OlexSys, GUI svn.r5506)
;
_audit_update_record
;
2019-08-17 deposited with the CCDC.    2019-09-08 downloaded from the CCDC.
;
_cell_angle_alpha                85.456(2)
_cell_angle_beta                 75.6790(10)
_cell_angle_gamma                87.617(3)
_cell_formula_units_Z            2
_cell_length_a                   10.1100(9)
_cell_length_b                   12.7449(11)
_cell_length_c                   14.2331(12)
_cell_measurement_reflns_used    851
_cell_measurement_temperature    298(2)
_cell_measurement_theta_max      27.095
_cell_measurement_theta_min      2.238
_cell_volume                     1770.9(3)
_computing_molecular_graphics    'Olex2 (Dolomanov et al., 2009)'
_computing_publication_material  'Olex2 (Dolomanov et al., 2009)'
_computing_structure_refinement  'ShelXL (Sheldrick, 2015)'
_computing_structure_solution    'ShelXT (Sheldrick, 2015)'
_diffrn_ambient_temperature      298.15
_diffrn_measured_fraction_theta_full 0.983
_diffrn_measured_fraction_theta_max 0.983
_diffrn_measurement_device_type  'Bruker APEX-II CCD'
_diffrn_radiation_type           MoK\a
_diffrn_radiation_wavelength     0.71073
_diffrn_reflns_av_R_equivalents  0.0864
_diffrn_reflns_av_unetI/netI     0.2381
_diffrn_reflns_Laue_measured_fraction_full 0.983
_diffrn_reflns_Laue_measured_fraction_max 0.983
_diffrn_reflns_limit_h_max       12
_diffrn_reflns_limit_h_min       -12
_diffrn_reflns_limit_k_max       10
_diffrn_reflns_limit_k_min       -15
_diffrn_reflns_limit_l_max       16
_diffrn_reflns_limit_l_min       -16
_diffrn_reflns_number            8762
_diffrn_reflns_point_group_measured_fraction_full 0.983
_diffrn_reflns_point_group_measured_fraction_max 0.983
_diffrn_reflns_theta_full        25.018
_diffrn_reflns_theta_max         25.018
_diffrn_reflns_theta_min         2.238
_exptl_absorpt_coefficient_mu    0.721
_exptl_absorpt_correction_T_max  0.9649
_exptl_absorpt_correction_T_min  0.8934
_exptl_absorpt_correction_type   multi-scan
_exptl_absorpt_process_details   Bruker;sadabs;2016
_exptl_crystal_colour            colourless
_exptl_crystal_colour_primary    colourless
_exptl_crystal_density_diffrn    1.324
_exptl_crystal_description       block
_exptl_crystal_F_000             720
_exptl_crystal_size_max          0.16
_exptl_crystal_size_mid          0.07
_exptl_crystal_size_min          0.05
_platon_squeeze_details
;
TITL 170116a in P-1
CELL   10.1100   12.7449   14.2331     85.46     75.68     87.62
SPGR P-1
# Solvent Accessible Volume =       261
# Electrons Found in S.A.V. =        66
# Note: Atoms in Void as Cxxx and Qxxx all others
C101 0.941 0.952 0.099 !       3.61 eA-3
C102 0.868 1.002 0.027 !       3.47 eA-3
C103 0.898 0.982 0.057 !       3.43 eA-3
C104 0.087 0.966 0.048 !       3.21 eA-3
C105 0.118 0.920 0.097 !       2.51 eA-3
C106 0.033 0.950 0.108 !       2.45 eA-3
C107 0.206 0.986 0.042 !       2.14 eA-3
C108 0.748 0.965 0.035 !       1.98 eA-3
C109 0.993 0.934 0.153 !       1.65 eA-3
C110 0.203 0.955 0.106 !       1.57 eA-3
C111 0.111 0.919 0.186 !       1.51 eA-3
C112 0.176 0.880 0.145 !       1.50 eA-3
C113 1.004 0.922 0.205 !       1.46 eA-3
Q114 0.500 0.253 0.310 !       1.45 eA-3
C115 0.096 0.969 0.167 !       1.41 eA-3
C116 0.104 0.907 0.245 !       1.40 eA-3
Q117 0.425 0.299 0.451 !       1.37 eA-3
Q118 0.994 0.795 0.141 !       1.36 eA-3
Q119 0.603 0.329 0.314 !       1.31 eA-3
C120 0.080 0.845 0.190 !       1.31 eA-3
C121 0.244 0.889 0.110 !       1.30 eA-3
Q122 0.861 0.098 0.060 !       1.26 eA-3
Q123 0.300 0.948 0.138 !       1.26 eA-3
C124 0.063 0.896 0.158 !       1.25 eA-3
Q125 0.709 0.058-0.001 !       1.24 eA-3
Q126 0.847 0.341 0.080 !       1.23 eA-3
Q127 0.472 0.453 0.371 !       1.21 eA-3
Q128 0.134 0.996 0.299 !       1.21 eA-3
C129 0.213 0.900 0.184 !       1.20 eA-3
Q130 0.898 0.906 0.028 !       1.20 eA-3
Q131 0.850 0.955 0.482 !       1.20 eA-3
C132 0.165 0.842 0.110 !       1.18 eA-3
Q133 0.774 0.086 0.014 !       1.18 eA-3
Q134 0.157 0.888 0.017 !       1.15 eA-3
C135 0.158 0.861 0.216 !       1.13 eA-3
Q136 0.251 0.049 0.082 !       1.13 eA-3
C137 0.786 0.937 0.098 !       1.13 eA-3
Q138 0.769 0.013 0.097 !       1.12 eA-3
Q139 0.535 0.251 0.391 !       1.10 eA-3
C140 0.103 0.813 0.146 !       1.09 eA-3
Q141 0.426 0.280 0.372 !       1.09 eA-3
Q142 0.736 0.750 0.488 !       1.09 eA-3
Q143 0.997 0.829 0.327 !       1.08 eA-3
Q144 0.887 0.029 0.123 !       1.08 eA-3
Q145 0.204 0.813 0.299 !       1.08 eA-3
Q146 0.144 0.059 0.061 !       1.07 eA-3
Q147 0.830 0.999 0.143 !       1.07 eA-3
Q148 0.874 0.152 0.036 !       1.05 eA-3
C149 0.977 0.874 0.145 !       1.05 eA-3
Q150 0.521 0.326 0.442 !       1.02 eA-3
Q151 0.231 0.591 0.341 !       1.01 eA-3
Q152 0.198 0.982 0.214 !       1.01 eA-3
Q153 0.600 0.751 0.436 !       1.00 eA-3
Q154 0.164 0.106 0.501 !       1.00 eA-3
Q155 0.217 0.139 0.046 !       1.00 eA-3
Q156 0.916 0.204 0.083 !       1.00 eA-3
Q157 0.433 0.891 0.439 !       1.00 eA-3
Q158 0.379 0.160 0.344 !       0.99 eA-3
Q159 0.322 0.251 0.359 !       0.99 eA-3
Q160 0.154 0.924 0.281 !       0.99 eA-3
Q161 0.548 0.377 0.487 !       0.98 eA-3
C162 0.280 0.108 0.000 !       0.97 eA-3
Q163 0.769 0.110 0.501 !       0.97 eA-3
Q164 0.791 0.232 0.428 !       0.97 eA-3
Q165 0.593 0.092 0.374 !       0.97 eA-3
Q166 0.628 0.315 0.425 !       0.96 eA-3
Q167 1.004 0.439 0.126 !       0.96 eA-3
Q168 0.245 0.809 0.081 !       0.95 eA-3
Q169 0.338 0.028 0.389 !       0.95 eA-3
Q170 0.693 0.315 0.312 !       0.94 eA-3
Q171 0.098 0.174 0.279 !       0.94 eA-3
Q172 0.971 0.012 0.420 !       0.94 eA-3
Q173 0.780 0.312 0.244 !       0.94 eA-3
Q174 0.788 0.328 0.311 !       0.94 eA-3
Q175 0.349 0.823 0.094 !       0.94 eA-3
Q176 0.692 0.263 0.239 !       0.93 eA-3
Q177 0.255 0.092 0.139 !       0.93 eA-3
C178 1.010 0.011 0.219 !       0.92 eA-3
Q179 0.231 0.283 0.221 !       0.91 eA-3
Q180 0.836 0.875 0.077 !       0.91 eA-3
Q181 0.642 0.046 0.060 !       0.91 eA-3
Q182 0.063 0.610 0.329 !       0.91 eA-3
Q183 0.240 0.815 0.159 !       0.91 eA-3
Q184 0.085 0.551 0.271 !       0.91 eA-3
Q185 0.350 0.798 0.172 !       0.91 eA-3
Q186 0.775 0.393 0.272 !       0.91 eA-3
Q187 0.375 0.065 0.453 !       0.90 eA-3
Q188 0.579 0.457 0.204 !       0.90 eA-3
Q189 0.749 0.939 0.467 !       0.89 eA-3
Q190 0.787 0.096 0.377 !       0.89 eA-3
Q191 0.635 0.982 0.014 !       0.89 eA-3
C192 0.782 0.889 0.028 !       0.88 eA-3
Q193 0.383 0.312 0.343 !       0.88 eA-3
Q194 0.269 0.519 0.392 !       0.88 eA-3
Q195 0.370 0.767 0.125 !       0.88 eA-3
Q196 0.608 0.137 0.451 !       0.88 eA-3
C197 1.010 0.861 0.062 !       0.88 eA-3
Q198 0.813 0.675 0.326 !       0.87 eA-3
Q199 0.139 0.473 0.234 !       0.87 eA-3
;
_refine_diff_density_max         0.884
_refine_diff_density_min         -1.703
_refine_diff_density_rms         0.161
_refine_ls_extinction_method     none
_refine_ls_goodness_of_fit_ref   1.007
_refine_ls_hydrogen_treatment    constr
_refine_ls_matrix_type           full
_refine_ls_number_parameters     382
_refine_ls_number_reflns         6124
_refine_ls_number_restraints     338
_refine_ls_restrained_S_all      0.982
_refine_ls_R_factor_all          0.1981
_refine_ls_R_factor_gt           0.1027
_refine_ls_shift/su_max          0.001
_refine_ls_shift/su_mean         0.000
_refine_ls_structure_factor_coef Fsqd
_refine_ls_weighting_details
'w=1/[\s^2^(Fo^2^)+(0.0805P)^2^] where P=(Fo^2^+2Fc^2^)/3'
_refine_ls_weighting_scheme      calc
_refine_ls_wR_factor_gt          0.2199
_refine_ls_wR_factor_ref         0.2451
_reflns_Friedel_coverage         0.000
_reflns_number_gt                2356
_reflns_number_total             6124
_reflns_threshold_expression     'I > 2\s(I)'
_iucr_refine_instructions_details
;
TITL 170116a in P-1
    170116a_sq.res
    created by SHELXL-2018/3 at 11:31:54 on 17-Aug-2019
CELL 0.71073 10.11 12.7449 14.2331 85.456 75.679 87.617
ZERR 2 0.0009 0.0011 0.0012 0.002 0.001 0.003
LATT 1
SFAC C H N O P Pd S
UNIT 66 60 2 8 2 2 4
RIGU

L.S. 20 0 37
PLAN  20
SIZE 0.16 0.07 0.05
TEMP 25
damp 600
BOND $H
conf
ABIN
fmap 2
acta
OMIT -1 50.04
OMIT 1 2 1
OMIT -1 1 0
OMIT 1 2 0
OMIT 6 7 6
OMIT 0 2 1
REM <olex2.extras>
REM <HklSrc "%.\\170116a_sq.hkl">
REM </olex2.extras>

WGHT    0.080500
FVAR       0.51994
PD1   6    0.485441    0.699450    0.629182    11.00000    0.03986    0.05069 =
         0.05990    0.00168   -0.01477    0.00098
N1    3    0.253764    0.737422    0.857811    11.00000    0.05412    0.05732 =
         0.04003   -0.00286   -0.01717    0.00019
O1    4    0.445982    0.788111    0.499696    11.00000    0.05276    0.06016 =
         0.06831    0.01053   -0.01864   -0.01097
O2    4    0.210732    0.848192    0.564216    11.00000    0.06141    0.06515 =
         0.06678   -0.01148   -0.02269    0.00083
O3    4    0.315975    0.858411    0.387340    11.00000    0.10352    0.05837 =
         0.05791    0.01548   -0.02461   -0.00864
O4    4    0.685328    0.764491    0.590898    11.00000    0.04670    0.04492 =
         0.10187    0.01672   -0.01495    0.00028
P1    5    0.292779    0.614130    0.665344    11.00000    0.04417    0.04862 =
         0.03818   -0.00263   -0.01118    0.00217
S1    7    0.307676    0.804575    0.482709    11.00000    0.06023    0.05038 =
         0.05724    0.00555   -0.01881   -0.00199
S2    7    0.706624    0.878287    0.546481    11.00000    0.05317    0.05560 =
         0.09890    0.01207   -0.02610   -0.00205
C1    1    0.135611    0.674915    0.738947    11.00000    0.02969    0.04557 =
         0.03573    0.00280   -0.00632   -0.00114
C2    1    0.131235    0.725350    0.822862    11.00000    0.04350    0.05658 =
         0.04801   -0.00383   -0.01704    0.00519
C3    1    0.010661    0.763172    0.880958    11.00000    0.05881    0.08787 =
         0.06295   -0.02781   -0.00965    0.00841
AFIX  43
H3    2    0.010049    0.794388    0.937955    11.00000   -1.20000
AFIX   0
C4    1   -0.109634    0.753224    0.851772    11.00000    0.03955    0.07446 =
         0.07403   -0.01412    0.00013    0.00564
AFIX  43
H4    2   -0.191455    0.777933    0.890247    11.00000   -1.20000
AFIX   0
C5    1   -0.110439    0.708417    0.768669    11.00000    0.03381    0.10320 =
         0.07070   -0.01228   -0.01287    0.01102
AFIX  43
H5    2   -0.191551    0.702817    0.749921    11.00000   -1.20000
AFIX   0
C6    1    0.009524    0.671798    0.713205    11.00000    0.04458    0.06152 =
         0.04808   -0.01410   -0.01652   -0.00311
AFIX  43
H6    2    0.008556    0.643189    0.655271    11.00000   -1.20000
AFIX   0
C7    1    0.337255    0.825706    0.829796    11.00000    0.03940    0.05052 =
         0.04491   -0.01006   -0.00832    0.00876
C8    1    0.346139    0.902294    0.751434    11.00000    0.05662    0.06234 =
         0.05719    0.00669   -0.01862   -0.00312
AFIX  43
H8    2    0.289652    0.900536    0.709018    11.00000   -1.20000
AFIX   0
C9    1    0.440380    0.979193    0.739782    11.00000    0.05568    0.06514 =
         0.09116    0.01784   -0.02143   -0.00154
AFIX  43
H9    2    0.451741    1.028287    0.686634    11.00000   -1.20000
AFIX   0
C10   1    0.519438    0.984935    0.806365    11.00000    0.06136    0.08483 =
         0.08347   -0.00207   -0.01797   -0.00916
AFIX  43
H10   2    0.579717    1.040050    0.797777    11.00000   -1.20000
AFIX   0
C11   1    0.512336    0.912497    0.884524    11.00000    0.06179    0.07175 =
         0.07774   -0.01615   -0.03223    0.00099
AFIX  43
H11   2    0.566758    0.918390    0.927741    11.00000   -1.20000
AFIX   0
C12   1    0.420207    0.828891    0.897452    11.00000    0.05837    0.07533 =
         0.06167   -0.00230   -0.02914   -0.00469
C13   1    0.381449    0.741021    0.969846    11.00000    0.06683    0.06621 =
         0.04656   -0.01101   -0.02904    0.00153
C14   1    0.427608    0.705366    1.051369    11.00000    0.08113    0.09801 =
         0.06644    0.00605   -0.04883   -0.00980
AFIX  43
H14   2    0.496401    0.739485    1.069026    11.00000   -1.20000
AFIX   0
C15   1    0.369371    0.620556    1.102977    11.00000    0.12808    0.11831 =
         0.07667    0.02913   -0.05802   -0.02296
AFIX  43
H15   2    0.401402    0.596097    1.156778    11.00000   -1.20000
AFIX   0
C16   1    0.267694    0.566907    1.083944    11.00000    0.12744    0.05565 =
         0.06454    0.02020   -0.03233   -0.01359
AFIX  43
H16   2    0.229914    0.509783    1.125178    11.00000   -1.20000
AFIX   0
C17   1    0.217842    0.599245    0.998439    11.00000    0.09907    0.06817 =
         0.06476    0.00110   -0.02997   -0.01653
AFIX  43
H17   2    0.151678    0.562899    0.979841    11.00000   -1.20000
AFIX   0
C18   1    0.279188    0.691187    0.945963    11.00000    0.06353    0.05601 =
         0.03955   -0.00511   -0.02607    0.00612
C19   1    0.243854    0.591277    0.551141    11.00000    0.04071    0.05609 =
         0.03383   -0.00264   -0.00627    0.00104
C20   1    0.251144    0.674666    0.476244    11.00000    0.03843    0.06161 =
         0.03306   -0.00649   -0.00862    0.00015
C21   1    0.212328    0.654155    0.390927    11.00000    0.06867    0.06678 =
         0.03720   -0.00826   -0.01980    0.00002
AFIX  43
H21   2    0.214099    0.708049    0.342623    11.00000   -1.20000
AFIX   0
C22   1    0.172342    0.556682    0.378280    11.00000    0.05913    0.06742 =
         0.04640   -0.01633   -0.02077    0.00271
AFIX  43
H22   2    0.145378    0.544979    0.322146    11.00000   -1.20000
AFIX   0
C23   1    0.171545    0.475192    0.448122    11.00000    0.06547    0.06552 =
         0.04754   -0.00981   -0.01506   -0.00188
AFIX  43
H23   2    0.148557    0.408142    0.437072    11.00000   -1.20000
AFIX   0
C24   1    0.204224    0.491654    0.533784    11.00000    0.05332    0.05741 =
         0.04310   -0.01074   -0.00742   -0.00698
AFIX  43
H24   2    0.200078    0.436179    0.580907    11.00000   -1.20000
AFIX   0
C25   1    0.287396    0.480776    0.724654    11.00000    0.04821    0.05024 =
         0.03165    0.00078   -0.01025   -0.00029
C26   1    0.401982    0.410352    0.692596    11.00000    0.05180    0.06661 =
         0.06234    0.01357   -0.01741    0.00506
AFIX  43
H26   2    0.476859    0.433990    0.644312    11.00000   -1.20000
AFIX   0
C27   1    0.401944    0.308394    0.732627    11.00000    0.07891    0.05914 =
         0.06507    0.00795   -0.02378    0.02063
AFIX  43
H27   2    0.476739    0.263753    0.711470    11.00000   -1.20000
AFIX   0
C28   1    0.290654    0.272083    0.804423    11.00000    0.09683    0.07001 =
         0.06539    0.01066   -0.02492    0.00369
AFIX  43
H28   2    0.291340    0.203238    0.831413    11.00000   -1.20000
AFIX   0
C29   1    0.181204    0.336213    0.835376    11.00000    0.08491    0.07443 =
         0.07239    0.02398   -0.00800   -0.00599
AFIX  43
H29   2    0.106688    0.310265    0.882693    11.00000   -1.20000
AFIX   0
C30   1    0.177646    0.440998    0.797665    11.00000    0.05124    0.07131 =
         0.06584    0.01953   -0.00935   -0.00634
AFIX  43
H30   2    0.102216    0.484206    0.821191    11.00000   -1.20000
AFIX   0
C31   1    0.849497    0.919043    0.586600    11.00000    0.05563    0.07119 =
         0.13484    0.00843   -0.03474   -0.00285
AFIX 137
H31A  2    0.917199    0.863250    0.580549    11.00000   -1.50000
H31B  2    0.820007    0.935409    0.653369    11.00000   -1.50000
H31C  2    0.887963    0.980342    0.547413    11.00000   -1.50000
AFIX   0
C32   1    0.795447    0.866540    0.424638    11.00000    0.12023    0.12041 =
         0.08072    0.00197   -0.01495   -0.00064
AFIX 137
H32A  2    0.872625    0.819431    0.422242    11.00000   -1.50000
H32B  2    0.826338    0.934472    0.395374    11.00000   -1.50000
H32C  2    0.735841    0.839309    0.389818    11.00000   -1.50000
AFIX   0
C33   1    0.541650    0.624494    0.745241    11.00000    0.05819    0.07636 =
         0.05108    0.00085   -0.02588    0.00065
AFIX 137
H33A  2    0.621695    0.581387    0.722824    11.00000   -1.50000
H33B  2    0.468696    0.581043    0.782005    11.00000   -1.50000
H33C  2    0.561099    0.675659    0.785696    11.00000   -1.50000
AFIX   0
HKLF 4




REM  170116a in P-1
REM wR2 = 0.2451, GooF = S = 1.007, Restrained GooF = 0.982 for all data
REM R1 = 0.1027 for 2356 Fo > 4sig(Fo) and 0.1981 for all 6124 data
REM 382 parameters refined using 338 restraints

END  
     
WGHT      0.1265      0.0000 

REM Highest difference peak  0.884,  deepest hole -1.703,  1-sigma level  0.161
Q1    1   0.5766  0.7198  0.5506  11.00000  0.05    0.88
Q2    1   0.3918  0.6580  0.6631  11.00000  0.05    0.82
Q3    1   0.5813  0.7302  0.6200  11.00000  0.05    0.67
Q4    1   0.5074  0.6585  0.6397  11.00000  0.05    0.65
Q5    1   0.3372  0.7128  1.2197  11.00000  0.05    0.55
Q6    1   0.4716  0.7389  0.6207  11.00000  0.05    0.55
Q7    1   0.6739  0.7722  0.6557  11.00000  0.05    0.54
Q8    1   0.4706  0.7589  0.6692  11.00000  0.05    0.54
Q9    1   0.7454  0.7560  0.4782  11.00000  0.05    0.50
Q10   1   0.7333  0.7320  0.5761  11.00000  0.05    0.50
Q11   1   0.1643  0.0860  0.9573  11.00000  0.05    0.50
Q12   1  -0.0198  0.8428  1.0009  11.00000  0.05    0.50
Q13   1   0.7403  0.8448  0.4174  11.00000  0.05    0.48
Q14   1   0.6706  0.8102  0.6074  11.00000  0.05    0.46
Q15   1   0.2642  0.2535  0.7389  11.00000  0.05    0.46
Q16   1  -0.0203  0.8666  0.9097  11.00000  0.05    0.46
Q17   1   0.7131  0.8425  0.4574  11.00000  0.05    0.45
Q18   1   0.4094  0.2385  0.7353  11.00000  0.05    0.44
Q19   1   0.8589  0.7418  0.3767  11.00000  0.05    0.44
Q20   1   0.8802  0.8747  0.3602  11.00000  0.05    0.44

  REM The information below was added by Olex2.
  REM
  REM R1 = 0.1027 for 2356 Fo > 4sig(Fo) and 0.1981 for all 8768 data
  REM n/a parameters refined using n/a restraints
  REM Highest difference peak 0.88, deepest hole -1.70
  REM Mean Shift 0, Max Shift 0.001.

  REM +++ Tabular Listing of Refinement Information +++
  REM R1_all = 0.1981
  REM R1_gt = 0.1027
  REM wR_ref = 0.2451
  REM GOOF = 1.007
  REM Shift_max = 0.001
  REM Shift_mean = 0
  REM Reflections_all = 8768
  REM Reflections_gt = 2356
  REM Parameters = n/a
  REM Hole = -1.70
  REM Peak = 0.88
  REM Flack = n/a

  
;
_cod_data_source_file            c9py00904c2.cif
_cod_data_source_block           170116a_sq
_cod_depositor_comments          'Adding full bibliography for 1552310.cif.'
_cod_database_code               1552310
_shelx_shelxl_version_number     2018/3
_shelx_space_group_comment
;
The symmetry employed for this shelxl refinement is uniquely defined
by the following loop, which should always be used as a source of
symmetry information in preference to the above space-group names.
They are only intended as comments.
;
_shelx_estimated_absorpt_t_max   0.965
_shelx_estimated_absorpt_t_min   0.893
_olex2_refinement_description
;
1. Fixed Uiso
 At 1.2 times of:
  All C(H) groups
 At 1.5 times of:
  All C(H,H,H) groups
2. Rigid body (RIGU) restrains
 All non-hydrogen atoms
 with sigma for 1-2 distances of 0.004 and sigma for 1-3 distances of 0.004
3.a Aromatic/amide H refined with riding coordinates:
 C3(H3), C4(H4), C5(H5), C6(H6), C8(H8), C9(H9), C10(H10), C11(H11), C14(H14),
 C15(H15), C16(H16), C17(H17), C21(H21), C22(H22), C23(H23), C24(H24), C26(H26),
  C27(H27), C28(H28), C29(H29), C30(H30)
3.b Idealised Me refined as rotating group:
 C31(H31A,H31B,H31C), C32(H32A,H32B,H32C), C33(H33A,H33B,H33C)
;
_shelx_fab_file
;
 0 0 3 1.66 0.00
 0 0 4 -0.94 0.00
 0 0 5 -4.16 0.00
 0 0 6 -1.53 0.00
 0 0 7 0.40 0.00
 0 0 8 -0.37 0.00
 0 0 9 -0.26 0.00
 0 0 10 1.21 0.00
 0 -1 11 0.75 0.00
 0 -1 9 0.59 0.00
 0 -1 8 -0.78 0.00
 0 -1 7 -0.30 0.00
 0 -1 6 -0.74 0.00
 0 -1 5 -3.29 0.00
 0 -1 4 -2.39 0.00
 0 -1 3 0.47 0.00
 0 -1 2 2.86 0.00
 0 1 3 7.19 0.00
 0 1 4 -0.95 0.00
 0 1 5 -4.14 0.00
 0 1 6 -2.87 0.00
 0 1 7 -1.25 0.00
 0 1 8 -0.31 0.00
 0 1 9 0.08 0.00
 0 1 10 0.21 0.00
 0 -2 11 -0.09 0.00
 0 -2 10 1.49 0.00
 0 -2 9 1.00 0.00
 0 -2 8 0.08 0.00
 0 -2 7 -1.08 0.00
 0 -2 6 -2.37 0.00
 0 -2 5 -2.33 0.00
 0 -2 4 -3.10 0.00
 0 -2 3 -3.02 0.00
 0 -2 2 0.46 0.00
 0 -2 1 13.36 0.00
 0 2 0 38.11 0.00
 0 2 1 50.76 0.00
 0 2 2 36.95 0.00
 0 2 3 15.85 0.00
 0 2 4 1.87 0.00
 0 2 5 -3.38 0.00
 0 2 6 -3.18 0.00
 0 2 7 -2.96 0.00
 0 2 8 -1.66 0.00
 0 2 9 -0.01 0.00
 0 2 10 0.10 0.00
 0 -3 11 -0.76 0.00
 0 -3 10 0.59 0.00
 0 -3 9 -0.04 0.00
 0 -3 8 -0.33 0.00
 0 -3 7 -0.18 0.00
 0 -3 6 -2.86 0.00
 0 -3 5 -3.46 0.00
 0 -3 3 -4.17 0.00
 0 -3 2 -2.52 0.00
 0 -3 1 6.11 0.00
 0 3 0 20.21 0.00
 0 3 1 31.12 0.00
 0 3 2 28.35 0.00
 0 3 3 16.42 0.00
 0 3 4 5.22 0.00
 0 3 5 -0.96 0.00
 0 3 6 -2.46 0.00
 0 3 7 -2.83 0.00
 0 3 8 -2.35 0.00
 0 3 10 -0.34 0.00
 0 -4 12 -3.16 0.00
 0 -4 11 -2.16 0.00
 0 -4 10 0.04 0.00
 0 -4 9 -0.05 0.00
 0 -4 8 -1.80 0.00
 0 -4 7 -0.79 0.00
 0 -4 6 -1.15 0.00
 0 -4 5 -3.16 0.00
 0 -4 4 -3.03 0.00
 0 -4 3 -3.12 0.00
 0 -4 2 -2.30 0.00
 0 -4 1 1.52 0.00
 0 4 0 9.28 0.00
 0 4 1 19.34 0.00
 0 4 2 21.44 0.00
 0 4 3 13.96 0.00
 0 4 4 6.24 0.00
 0 4 5 1.23 0.00
 0 4 6 -1.54 0.00
 0 4 7 -1.77 0.00
 0 4 8 -1.36 0.00
 0 4 9 -1.67 0.00
 0 -5 12 -3.38 0.00
 0 -5 11 -3.47 0.00
 0 -5 10 -1.49 0.00
 0 -5 9 0.05 0.00
 0 -5 8 -1.49 0.00
 0 -5 7 -1.71 0.00
 0 -5 6 -0.93 0.00
 0 -5 5 -1.65 0.00
 0 -5 4 -1.77 0.00
 0 -5 3 -2.22 0.00
 0 -5 2 -1.76 0.00
 0 -5 1 0.96 0.00
 0 5 0 4.48 0.00
 0 5 1 10.98 0.00
 0 5 2 16.24 0.00
 0 5 3 13.93 0.00
 0 5 4 8.43 0.00
 0 5 5 3.52 0.00
 0 5 6 -0.35 0.00
 0 5 7 -1.15 0.00
 0 5 8 -0.48 0.00
 0 5 9 -1.01 0.00
 0 -6 12 -2.21 0.00
 0 -6 11 -2.99 0.00
 0 -6 10 -2.37 0.00
 0 -6 9 -0.98 0.00
 0 -6 8 -1.23 0.00
 0 -6 7 -1.12 0.00
 0 -6 6 -0.62 0.00
 0 -6 5 -1.52 0.00
 0 -6 4 -0.69 0.00
 0 -6 3 -0.08 0.00
 0 -6 2 -1.78 0.00
 0 -6 1 -0.46 0.00
 0 6 0 3.69 0.00
 0 6 1 7.43 0.00
 0 6 2 10.97 0.00
 0 6 3 12.52 0.00
 0 6 4 10.28 0.00
 0 6 5 5.66 0.00
 0 6 6 1.58 0.00
 0 6 7 -0.18 0.00
 0 6 8 -0.66 0.00
 0 -7 12 -0.79 0.00
 0 -7 11 -1.50 0.00
 0 -7 10 -1.99 0.00
 0 -7 9 -1.47 0.00
 0 -7 8 -1.12 0.00
 0 -7 7 -1.09 0.00
 0 -7 6 -0.24 0.00
 0 -7 5 -0.54 0.00
 0 -7 4 -0.77 0.00
 0 -7 3 0.37 0.00
 0 -7 2 -0.71 0.00
 0 -7 1 -1.80 0.00
 0 7 0 1.48 0.00
 0 7 1 5.62 0.00
 0 7 2 7.86 0.00
 0 7 3 9.89 0.00
 0 7 4 9.87 0.00
 0 7 5 6.16 0.00
 0 7 6 2.54 0.00
 0 7 7 0.68 0.00
 0 7 8 -0.95 0.00
 0 -8 12 -0.12 0.00
 0 -8 11 -0.22 0.00
 0 -8 10 -1.49 0.00
 0 -8 9 -2.20 0.00
 0 -8 8 -0.53 0.00
 0 -8 7 -0.30 0.00
 0 -8 6 -1.21 0.00
 0 -8 5 -0.33 0.00
 0 -8 4 0.33 0.00
 0 -8 3 -0.14 0.00
 0 -8 2 -0.66 0.00
 0 -8 1 -1.35 0.00
 0 8 0 -0.46 0.00
 0 8 1 2.70 0.00
 0 8 2 5.43 0.00
 0 8 3 7.27 0.00
 0 8 4 7.95 0.00
 0 8 5 5.92 0.00
 0 8 6 3.09 0.00
 0 8 7 0.84 0.00
 0 8 8 -1.30 0.00
 0 -9 12 -0.17 0.00
 0 -9 11 -0.07 0.00
 0 -9 10 -1.29 0.00
 0 -9 9 -3.11 0.00
 0 -9 8 -1.38 0.00
 0 -9 7 0.63 0.00
 0 -9 6 -0.96 0.00
 0 -9 5 -1.56 0.00
 0 -9 4 0.25 0.00
 0 -9 3 0.28 0.00
 0 -9 2 -0.66 0.00
 0 -9 1 -0.47 0.00
 0 9 0 -0.48 0.00
 0 9 1 0.32 0.00
 0 9 2 2.96 0.00
 0 9 3 5.21 0.00
 0 9 4 5.66 0.00
 0 9 5 4.76 0.00
 0 9 6 3.60 0.00
 0 9 7 1.71 0.00
 0 9 8 -0.84 0.00
 0 -10 11 -0.26 0.00
 0 -10 10 -2.09 0.00
 0 -10 9 -3.74 0.00
 0 -10 8 -2.33 0.00
 0 -10 7 -0.13 0.00
 0 -10 6 -0.49 0.00
 0 -10 5 -1.63 0.00
 0 -10 4 -0.83 0.00
 0 -10 2 -0.55 0.00
 0 -10 1 0.26 0.00
 0 10 0 0.96 0.00
 0 10 1 0.00 0.00
 0 10 2 0.68 0.00
 0 10 3 3.31 0.00
 0 10 4 4.63 0.00
 0 10 5 3.90 0.00
 0 10 6 2.92 0.00
 0 10 7 1.97 0.00
 0 -11 10 -2.01 0.00
 0 -11 9 -4.65 0.00
 0 -11 8 -3.19 0.00
 0 -11 7 -0.87 0.00
 0 -11 6 -0.81 0.00
 0 -11 5 -1.30 0.00
 0 -11 4 -0.91 0.00
 0 -11 3 -0.52 0.00
 0 -11 2 -1.18 0.00
 0 -11 1 -0.38 0.00
 0 11 0 1.70 0.00
 0 11 1 1.07 0.00
 0 11 2 -0.08 0.00
 0 11 3 1.38 0.00
 0 11 4 3.39 0.00
 0 11 5 3.89 0.00
 0 11 6 2.82 0.00
 0 11 7 1.16 0.00
 0 -12 9 -3.38 0.00
 0 -12 8 -3.99 0.00
 0 -12 7 -2.03 0.00
 0 -12 6 -1.36 0.00
 0 -12 5 -1.12 0.00
 0 -12 4 -0.14 0.00
 0 -12 3 0.07 0.00
 0 -12 2 -1.54 0.00
 0 -12 1 -1.70 0.00
 0 12 0 0.64 0.00
 0 12 1 0.51 0.00
 0 12 2 -0.59 0.00
 0 12 3 0.97 0.00
 0 12 4 2.22 0.00
 0 12 5 2.59 0.00
 0 12 6 2.79 0.00
 0 12 7 1.10 0.00
 0 -13 7 -2.29 0.00
 0 -13 6 -2.63 0.00
 0 -13 5 -2.11 0.00
 0 -13 4 0.35 0.00
 0 -13 3 1.54 0.00
 0 -13 2 -0.76 0.00
 0 -13 1 -2.47 0.00
 0 13 0 -0.73 0.00
 0 13 1 -1.09 0.00
 0 13 2 -2.81 0.00
 0 13 3 -0.13 0.00
 0 13 4 2.28 0.00
 0 13 5 1.65 0.00
 0 13 6 1.67 0.00
 0 -14 5 -3.38 0.00
 0 -14 4 -1.15 0.00
 0 -14 3 1.64 0.00
 0 -14 2 0.92 0.00
 0 -14 1 -1.60 0.00
 0 14 0 -1.81 0.00
 0 14 1 -2.05 0.00
 0 14 2 -3.98 0.00
 0 14 3 -2.52 0.00
 0 14 4 0.84 0.00
 0 14 5 1.64 0.00
 0 14 6 1.42 0.00
 0 -15 1 0.18 0.00
 0 15 0 -1.45 0.00
 0 15 1 -2.60 0.00
 0 15 2 -3.29 0.00
 0 15 3 -2.91 0.00
 -1 15 2 -2.22 0.00
 -1 15 1 -1.90 0.00
 -1 15 0 -0.95 0.00
 -1 14 5 1.57 0.00
 -1 14 4 0.44 0.00
 -1 14 3 -2.58 0.00
 -1 14 2 -3.40 0.00
 -1 14 1 -1.43 0.00
 -1 14 0 -0.92 0.00
 1 -14 1 -0.79 0.00
 1 -14 2 0.37 0.00
 1 -14 3 0.46 0.00
 1 -14 4 -1.54 0.00
 1 -14 5 -2.31 0.00
 -1 13 5 1.33 0.00
 -1 13 4 1.72 0.00
 -1 13 3 -0.63 0.00
 -1 13 2 -3.46 0.00
 -1 13 1 -1.89 0.00
 -1 13 0 -0.55 0.00
 1 -13 1 -0.97 0.00
 1 -13 2 0.40 0.00
 1 -13 3 2.19 0.00
 1 -13 4 1.44 0.00
 1 -13 5 -0.35 0.00
 1 -13 6 0.22 0.00
 1 -13 7 1.30 0.00
 -1 12 6 2.43 0.00
 -1 12 5 1.44 0.00
 -1 12 4 1.27 0.00
 -1 12 3 0.91 0.00
 -1 12 2 -0.94 0.00
 -1 12 1 -1.13 0.00
 -1 12 0 -0.87 0.00
 1 -12 1 -0.84 0.00
 1 -12 2 0.81 0.00
 1 -12 3 2.18 0.00
 1 -12 4 2.32 0.00
 1 -12 5 2.15 0.00
 1 -12 6 2.21 0.00
 1 -12 7 1.80 0.00
 1 -12 8 0.41 0.00
 1 -12 9 0.95 0.00
 -1 11 6 1.78 0.00
 -1 11 5 2.29 0.00
 -1 11 4 1.76 0.00
 -1 11 3 0.97 0.00
 -1 11 2 0.36 0.00
 -1 11 1 0.81 0.00
 -1 11 0 0.25 0.00
 1 -11 1 -0.63 0.00
 1 -11 2 1.21 0.00
 1 -11 3 2.40 0.00
 1 -11 4 1.64 0.00
 1 -11 5 2.09 0.00
 1 -11 6 3.13 0.00
 1 -11 7 2.82 0.00
 1 -11 8 0.99 0.00
 1 -11 9 0.17 0.00
 1 -11 10 1.48 0.00
 -1 10 6 1.36 0.00
 -1 10 5 2.18 0.00
 -1 10 4 2.95 0.00
 -1 10 3 2.19 0.00
 -1 10 2 0.42 0.00
 -1 10 1 0.57 0.00
 -1 10 0 1.33 0.00
 1 -10 1 0.60 0.00
 1 -10 2 1.60 0.00
 1 -10 3 3.12 0.00
 1 -10 4 1.49 0.00
 1 -10 5 0.49 0.00
 1 -10 6 2.23 0.00
 1 -10 7 2.65 0.00
 1 -10 8 0.98 0.00
 1 -10 9 0.49 0.00
 1 -10 10 1.30 0.00
 1 -10 11 1.09 0.00
 -1 9 6 1.77 0.00
 -1 9 5 2.56 0.00
 -1 9 4 3.65 0.00
 -1 9 3 3.54 0.00
 -1 9 2 1.44 0.00
 -1 9 1 -0.23 0.00
 -1 9 0 0.25 0.00
 1 -9 1 0.76 0.00
 1 -9 2 1.53 0.00
 1 -9 3 3.63 0.00
 1 -9 4 2.91 0.00
 1 -9 5 -0.37 0.00
 1 -9 6 -0.04 0.00
 1 -9 7 1.95 0.00
 1 -9 8 0.70 0.00
 1 -9 9 -0.04 0.00
 1 -9 10 1.44 0.00
 1 -9 11 1.07 0.00
 1 -9 12 0.13 0.00
 -1 8 7 -0.71 0.00
 -1 8 6 1.05 0.00
 -1 8 5 3.09 0.00
 -1 8 4 4.90 0.00
 -1 8 3 4.44 0.00
 -1 8 2 2.65 0.00
 -1 8 1 0.53 0.00
 -1 8 0 -0.96 0.00
 1 -8 1 -0.66 0.00
 1 -8 2 0.51 0.00
 1 -8 3 2.23 0.00
 1 -8 4 3.36 0.00
 1 -8 5 1.28 0.00
 1 -8 6 -1.03 0.00
 1 -8 7 0.06 0.00
 1 -8 8 0.73 0.00
 1 -8 9 -0.03 0.00
 1 -8 10 0.54 0.00
 1 -8 11 0.73 0.00
 1 -8 12 0.29 0.00
 1 -8 13 1.08 0.00
 -1 7 7 -0.59 0.00
 -1 7 6 0.65 0.00
 -1 7 5 2.95 0.00
 -1 7 4 5.51 0.00
 -1 7 3 5.28 0.00
 -1 7 2 3.79 0.00
 -1 7 1 2.32 0.00
 -1 7 0 -0.46 0.00
 1 -7 1 -2.12 0.00
 1 -7 2 -0.69 0.00
 1 -7 3 0.58 0.00
 1 -7 4 0.87 0.00
 1 -7 5 1.48 0.00
 1 -7 6 0.75 0.00
 1 -7 7 -0.37 0.00
 1 -7 8 0.04 0.00
 1 -7 9 0.40 0.00
 1 -7 10 -0.04 0.00
 1 -7 11 -0.44 0.00
 1 -7 12 0.09 0.00
 1 -7 13 1.20 0.00
 1 -7 14 1.77 0.00
 -1 6 7 -1.11 0.00
 -1 6 6 0.65 0.00
 -1 6 5 3.65 0.00
 -1 6 4 5.92 0.00
 -1 6 3 6.21 0.00
 -1 6 2 5.27 0.00
 -1 6 1 3.64 0.00
 -1 6 0 1.17 0.00
 1 -6 1 -1.55 0.00
 1 -6 2 -1.85 0.00
 1 -6 3 -0.62 0.00
 1 -6 4 -0.98 0.00
 1 -6 5 -0.66 0.00
 1 -6 6 0.70 0.00
 1 -6 7 0.74 0.00
 1 -6 8 0.84 0.00
 1 -6 9 0.92 0.00
 1 -6 10 -0.39 0.00
 1 -6 11 -1.47 0.00
 1 -6 12 -0.63 0.00
 1 -6 13 0.82 0.00
 -1 5 7 -2.20 0.00
 -1 5 6 -1.05 0.00
 -1 5 5 2.96 0.00
 -1 5 4 6.00 0.00
 -1 5 3 8.04 0.00
 -1 5 2 9.05 0.00
 -1 5 1 5.84 0.00
 -1 5 0 1.87 0.00
 1 -5 1 0.00 0.00
 1 -5 2 -1.42 0.00
 1 -5 3 -1.88 0.00
 1 -5 4 -1.99 0.00
 1 -5 5 -1.49 0.00
 1 -5 6 -0.37 0.00
 1 -5 7 -0.15 0.00
 1 -5 8 1.31 0.00
 1 -5 9 2.63 0.00
 1 -5 10 0.48 0.00
 1 -5 11 -1.87 0.00
 1 -5 12 -1.36 0.00
 1 -5 13 0.18 0.00
 -1 4 6 -2.32 0.00
 -1 4 5 0.36 0.00
 -1 4 4 4.08 0.00
 -1 4 3 8.88 0.00
 -1 4 2 13.71 0.00
 -1 4 1 11.61 0.00
 -1 4 0 5.05 0.00
 1 -4 1 0.90 0.00
 1 -4 2 -1.37 0.00
 1 -4 3 -1.89 0.00
 1 -4 4 -2.15 0.00
 1 -4 5 -2.24 0.00
 1 -4 6 -0.33 0.00
 1 -4 7 -0.22 0.00
 1 -4 8 -0.24 0.00
 1 -4 9 2.39 0.00
 1 -4 10 2.32 0.00
 1 -4 11 -0.39 0.00
 1 -4 12 -1.22 0.00
 1 -4 13 -0.16 0.00
 -1 3 8 -2.90 0.00
 -1 3 7 -2.79 0.00
 -1 3 6 -2.24 0.00
 -1 3 5 -1.49 0.00
 -1 3 4 2.10 0.00
 -1 3 3 9.69 0.00
 -1 3 2 17.67 0.00
 -1 3 1 17.87 0.00
 -1 3 0 11.23 0.00
 1 -3 1 4.75 0.00
 1 -3 2 -1.08 0.00
 1 -3 3 -2.73 0.00
 1 -3 4 -0.93 0.00
 1 -3 5 -1.93 0.00
 1 -3 6 -1.35 0.00
 1 -3 7 0.75 0.00
 1 -3 8 -0.01 0.00
 1 -3 9 0.55 0.00
 1 -3 10 2.02 0.00
 1 -3 11 1.34 0.00
 1 -3 12 0.39 0.00
 1 -3 13 0.51 0.00
 -1 2 8 -2.47 0.00
 -1 2 7 -3.65 0.00
 -1 2 6 -2.77 0.00
 -1 2 5 -2.90 0.00
 -1 2 4 0.05 0.00
 -1 2 2 23.58 0.00
 -1 2 1 28.23 0.00
 -1 2 0 17.70 0.00
 1 -2 1 6.96 0.00
 1 -2 2 2.26 0.00
 1 -2 3 -1.31 0.00
 1 -2 4 -1.33 0.00
 1 -2 5 -0.64 0.00
 1 -2 6 -1.19 0.00
 1 -2 7 0.11 0.00
 1 -2 8 0.78 0.00
 1 -2 9 0.72 0.00
 1 -2 10 1.07 0.00
 1 -2 11 1.03 0.00
 1 -2 12 1.53 0.00
 -1 1 9 0.29 0.00
 -1 1 8 -1.00 0.00
 -1 1 7 -2.90 0.00
 -1 1 6 -3.51 0.00
 -1 1 5 -4.46 0.00
 1 -1 1 8.37 0.00
 1 -1 2 0.63 0.00
 1 -1 3 3.11 0.00
 1 -1 4 -0.02 0.00
 1 -1 5 -1.37 0.00
 1 -1 6 0.04 0.00
 1 -1 7 0.09 0.00
 1 -1 8 -0.04 0.00
 1 -1 9 1.20 0.00
 1 -1 10 1.66 0.00
 1 -1 11 0.48 0.00
 1 -1 12 1.10 0.00
 -1 0 9 -1.05 0.00
 -1 0 8 -1.03 0.00
 -1 0 7 -1.17 0.00
 -1 0 6 -2.38 0.00
 -1 0 5 -5.20 0.00
 -1 0 4 -3.71 0.00
 1 0 1 23.82 0.00
 1 0 2 -0.52 0.00
 1 0 3 1.80 0.00
 1 0 4 2.20 0.00
 1 0 5 -1.36 0.00
 1 0 6 -0.09 0.00
 1 0 7 0.38 0.00
 1 0 8 -0.65 0.00
 1 0 9 0.63 0.00
 1 0 10 2.04 0.00
 1 0 11 0.85 0.00
 1 0 12 0.54 0.00
 -1 -1 9 -1.03 0.00
 -1 -1 8 -2.42 0.00
 -1 -1 7 -1.83 0.00
 -1 -1 6 -0.76 0.00
 -1 -1 5 -3.20 0.00
 -1 -1 4 -4.62 0.00
 -1 -1 3 -2.78 0.00
 -1 -1 2 0.95 0.00
 -1 -1 1 22.95 0.00
 1 1 0 49.54 0.00
 1 1 1 39.79 0.00
 1 1 2 11.94 0.00
 1 1 3 1.80 0.00
 1 1 4 0.21 0.00
 1 1 5 -1.29 0.00
 1 1 6 -0.14 0.00
 1 1 7 -0.36 0.00
 1 1 8 -1.21 0.00
 1 1 9 0.01 0.00
 1 1 10 1.46 0.00
 1 1 11 1.16 0.00
 1 1 12 0.54 0.00
 -1 -2 10 1.69 0.00
 -1 -2 9 0.40 0.00
 -1 -2 8 -1.89 0.00
 -1 -2 7 -3.43 0.00
 -1 -2 6 -2.26 0.00
 -1 -2 5 -0.66 0.00
 -1 -2 4 -2.98 0.00
 -1 -2 3 -4.89 0.00
 -1 -2 2 -2.38 0.00
 -1 -2 1 10.26 0.00
 1 2 0 30.40 0.00
 1 2 1 35.17 0.00
 1 2 2 22.21 0.00
 1 2 4 0.78 0.00
 1 2 5 -2.36 0.00
 1 2 6 -0.51 0.00
 1 2 7 -0.93 0.00
 1 2 8 -2.00 0.00
 1 2 9 -0.97 0.00
 1 2 10 0.34 0.00
 1 2 11 1.08 0.00
 -1 -3 10 0.50 0.00
 -1 -3 9 0.46 0.00
 -1 -3 8 -0.74 0.00
 -1 -3 7 -2.34 0.00
 -1 -3 6 -3.76 0.00
 -1 -3 5 -1.66 0.00
 -1 -3 4 -0.84 0.00
 -1 -3 3 -4.07 0.00
 -1 -3 2 -4.09 0.00
 -1 -3 1 3.95 0.00
 1 3 0 17.10 0.00
 1 3 1 23.86 0.00
 1 3 2 19.95 0.00
 1 3 3 12.71 0.00
 1 3 4 4.65 0.00
 1 3 5 -0.76 0.00
 1 3 7 -0.94 0.00
 1 3 8 -1.94 0.00
 1 3 9 -2.12 0.00
 1 3 10 -1.39 0.00
 1 3 11 0.45 0.00
 -1 -4 10 -0.40 0.00
 -1 -4 9 0.16 0.00
 -1 -4 8 -1.09 0.00
 -1 -4 7 -1.15 0.00
 -1 -4 6 -2.14 0.00
 -1 -4 5 -2.53 0.00
 -1 -4 4 -1.55 0.00
 -1 -4 3 -2.53 0.00
 -1 -4 2 -2.89 0.00
 1 4 0 8.46 0.00
 1 4 1 17.10 0.00
 1 4 2 17.57 0.00
 1 4 3 11.45 0.00
 1 4 4 5.58 0.00
 1 4 5 1.54 0.00
 1 4 6 -0.27 0.00
 1 4 7 -0.46 0.00
 1 4 8 -0.78 0.00
 1 4 9 -2.30 0.00
 1 4 10 -3.11 0.00
 -1 -5 11 -3.20 0.00
 -1 -5 10 -1.64 0.00
 -1 -5 9 0.10 0.00
 -1 -5 8 -1.07 0.00
 -1 -5 7 -1.16 0.00
 -1 -5 6 -0.88 0.00
 -1 -5 5 -1.56 0.00
 -1 -5 4 -1.43 0.00
 -1 -5 3 -2.46 0.00
 -1 -5 2 -2.45 0.00
 -1 -5 1 0.20 0.00
 1 5 0 3.99 0.00
 1 5 1 10.88 0.00
 1 5 2 15.83 0.00
 1 5 3 12.76 0.00
 1 5 4 6.87 0.00
 1 5 5 2.89 0.00
 1 5 6 0.43 0.00
 1 5 7 -0.17 0.00
 1 5 8 0.14 0.00
 1 5 9 -1.26 0.00
 1 5 10 -3.42 0.00
 -1 -6 11 -2.95 0.00
 -1 -6 10 -2.68 0.00
 -1 -6 9 -0.86 0.00
 -1 -6 8 -1.00 0.00
 -1 -6 7 -0.90 0.00
 -1 -6 6 -0.53 0.00
 -1 -6 5 -1.73 0.00
 -1 -6 4 -0.99 0.00
 -1 -6 3 -0.99 0.00
 -1 -6 2 -3.05 0.00
 -1 -6 1 -1.32 0.00
 1 6 0 2.94 0.00
 1 6 1 7.04 0.00
 1 6 2 11.42 0.00
 1 6 3 12.56 0.00
 1 6 4 9.15 0.00
 1 6 5 4.82 0.00
 1 6 6 1.81 0.00
 1 6 7 0.29 0.00
 1 6 8 -0.15 0.00
 1 6 9 -0.57 0.00
 1 6 10 -2.12 0.00
 -1 -7 11 -1.58 0.00
 -1 -7 10 -2.33 0.00
 -1 -7 9 -1.58 0.00
 -1 -7 8 -1.05 0.00
 -1 -7 7 -1.05 0.00
 -1 -7 6 -0.66 0.00
 -1 -7 5 -1.94 0.00
 -1 -7 4 -2.19 0.00
 -1 -7 3 -0.71 0.00
 -1 -7 2 -1.91 0.00
 -1 -7 1 -2.65 0.00
 1 7 0 0.83 0.00
 1 7 1 4.81 0.00
 1 7 2 7.56 0.00
 1 7 3 9.68 0.00
 1 7 4 9.04 0.00
 1 7 5 5.85 0.00
 1 7 6 3.16 0.00
 1 7 7 1.22 0.00
 1 7 8 -0.65 0.00
 1 7 9 -1.10 0.00
 1 7 10 -0.93 0.00
 -1 -8 11 -0.49 0.00
 -1 -8 10 -1.55 0.00
 -1 -8 9 -2.09 0.00
 -1 -8 8 -0.61 0.00
 -1 -8 7 -0.39 0.00
 -1 -8 6 -1.55 0.00
 -1 -8 5 -2.27 0.00
 -1 -8 4 -2.61 0.00
 -1 -8 3 -2.19 0.00
 -1 -8 2 -1.79 0.00
 -1 -8 1 -1.95 0.00
 1 8 0 -0.62 0.00
 1 8 1 2.27 0.00
 1 8 2 4.63 0.00
 1 8 3 6.39 0.00
 1 8 4 6.97 0.00
 1 8 5 5.57 0.00
 1 8 6 3.78 0.00
 1 8 7 1.81 0.00
 1 8 8 -0.81 0.00
 1 8 9 -2.19 0.00
 -1 -9 11 -0.51 0.00
 -1 -9 10 -1.53 0.00
 -1 -9 9 -2.83 0.00
 -1 -9 8 -1.27 0.00
 -1 -9 7 0.37 0.00
 -1 -9 6 -1.17 0.00
 -1 -9 5 -2.80 0.00
 -1 -9 4 -2.70 0.00
 -1 -9 3 -2.53 0.00
 -1 -9 2 -2.10 0.00
 -1 -9 1 -1.32 0.00
 1 9 0 -0.82 0.00
 1 9 1 0.59 0.00
 1 9 2 2.73 0.00
 1 9 3 4.09 0.00
 1 9 4 4.43 0.00
 1 9 5 4.10 0.00
 1 9 6 3.72 0.00
 1 9 7 2.50 0.00
 1 9 8 0.01 0.00
 1 9 9 -2.51 0.00
 -1 -10 11 -0.77 0.00
 -1 -10 10 -2.81 0.00
 -1 -10 9 -3.93 0.00
 -1 -10 8 -2.28 0.00
 -1 -10 7 -0.51 0.00
 -1 -10 6 -0.92 0.00
 -1 -10 5 -2.19 0.00
 -1 -10 4 -2.64 0.00
 -1 -10 3 -2.39 0.00
 -1 -10 2 -1.45 0.00
 -1 -10 1 -0.16 0.00
 1 10 0 -0.15 0.00
 1 10 1 -0.36 0.00
 1 10 2 1.12 0.00
 1 10 3 2.96 0.00
 1 10 4 3.46 0.00
 1 10 5 2.65 0.00
 1 10 6 2.13 0.00
 1 10 7 2.16 0.00
 1 10 8 1.43 0.00
 1 10 9 -0.93 0.00
 -1 -11 10 -3.27 0.00
 -1 -11 9 -5.72 0.00
 -1 -11 8 -3.64 0.00
 -1 -11 7 -1.22 0.00
 -1 -11 6 -1.20 0.00
 -1 -11 5 -1.71 0.00
 -1 -11 4 -2.03 0.00
 -1 -11 3 -2.12 0.00
 -1 -11 2 -1.25 0.00
 -1 -11 1 0.84 0.00
 1 11 0 1.62 0.00
 1 11 1 0.08 0.00
 1 11 2 -0.38 0.00
 1 11 3 1.34 0.00
 1 11 4 2.87 0.00
 1 11 5 2.42 0.00
 1 11 6 0.91 0.00
 1 11 7 0.42 0.00
 1 11 8 0.96 0.00
 -1 -12 8 -5.51 0.00
 -1 -12 7 -2.59 0.00
 -1 -12 6 -0.75 0.00
 -1 -12 5 -0.57 0.00
 -1 -12 4 -1.02 0.00
 -1 -12 3 -1.55 0.00
 -1 -12 2 -1.75 0.00
 -1 -12 1 0.20 0.00
 1 12 0 2.61 0.00
 1 12 1 1.19 0.00
 1 12 2 -0.81 0.00
 1 12 3 0.25 0.00
 1 12 4 1.46 0.00
 1 12 5 1.14 0.00
 1 12 6 0.34 0.00
 1 12 7 -0.39 0.00
 1 12 8 -0.61 0.00
 -1 -13 7 -4.06 0.00
 -1 -13 6 -1.65 0.00
 -1 -13 5 0.51 0.00
 -1 -13 4 1.12 0.00
 -1 -13 3 0.15 0.00
 -1 -13 2 -1.84 0.00
 -1 -13 1 -1.51 0.00
 1 13 0 1.77 0.00
 1 13 1 1.43 0.00
 1 13 2 -1.24 0.00
 1 13 3 -0.13 0.00
 1 13 4 1.10 0.00
 1 13 5 -0.36 0.00
 1 13 6 -1.22 0.00
 1 13 7 -1.08 0.00
 1 13 8 -1.42 0.00
 -1 -14 4 1.84 0.00
 -1 -14 3 2.22 0.00
 -1 -14 2 -0.17 0.00
 -1 -14 1 -2.07 0.00
 1 14 0 -0.15 0.00
 1 14 1 0.78 0.00
 1 14 2 -1.43 0.00
 1 14 3 -1.08 0.00
 1 14 4 0.62 0.00
 1 14 5 -0.15 0.00
 1 14 6 -1.54 0.00
 1 14 7 -2.14 0.00
 1 15 0 -0.91 0.00
 1 15 1 -0.33 0.00
 1 15 2 -0.91 0.00
 1 15 3 -1.20 0.00
 -2 14 3 -0.49 0.00
 -2 14 2 -0.16 0.00
 -2 14 1 0.31 0.00
 -2 14 0 -0.87 0.00
 2 -14 1 -1.00 0.00
 2 -14 2 0.52 0.00
 2 -14 3 1.48 0.00
 2 -14 4 -0.19 0.00
 -2 13 4 0.87 0.00
 -2 13 3 -0.47 0.00
 -2 13 2 -1.92 0.00
 -2 13 1 -0.56 0.00
 -2 13 0 -0.03 0.00
 2 -13 1 -0.90 0.00
 2 -13 2 0.04 0.00
 2 -13 3 2.76 0.00
 2 -13 4 3.20 0.00
 2 -13 5 0.56 0.00
 2 -13 6 -0.50 0.00
 2 -13 7 0.35 0.00
 -2 12 4 -0.42 0.00
 -2 12 3 -0.02 0.00
 -2 12 2 -1.51 0.00
 -2 12 1 -2.05 0.00
 -2 12 0 -1.48 0.00
 2 -12 1 -0.54 0.00
 2 -12 2 0.52 0.00
 2 -12 3 1.73 0.00
 2 -12 4 3.59 0.00
 2 -12 5 3.79 0.00
 2 -12 6 2.01 0.00
 2 -12 7 0.58 0.00
 2 -12 8 0.67 0.00
 2 -12 9 2.71 0.00
 -2 11 5 -1.43 0.00
 -2 11 4 -0.76 0.00
 -2 11 3 -0.37 0.00
 -2 11 2 -0.58 0.00
 -2 11 1 -1.13 0.00
 -2 11 0 -2.10 0.00
 2 -11 1 -1.55 0.00
 2 -11 2 0.74 0.00
 2 -11 3 1.10 0.00
 2 -11 4 1.38 0.00
 2 -11 5 3.54 0.00
 2 -11 6 3.87 0.00
 2 -11 7 2.04 0.00
 2 -11 8 1.04 0.00
 2 -11 9 1.99 0.00
 2 -11 10 3.07 0.00
 -2 10 5 -1.88 0.00
 -2 10 4 -0.07 0.00
 -2 10 3 0.29 0.00
 -2 10 2 -0.56 0.00
 -2 10 1 -0.57 0.00
 -2 10 0 -0.58 0.00
 2 -10 1 -1.03 0.00
 2 -10 2 0.38 0.00
 2 -10 3 0.99 0.00
 2 -10 4 -0.47 0.00
 2 -10 5 0.61 0.00
 2 -10 6 3.09 0.00
 2 -10 7 2.58 0.00
 2 -10 8 1.32 0.00
 2 -10 9 2.32 0.00
 2 -10 10 3.08 0.00
 2 -10 11 1.81 0.00
 -2 9 5 -2.08 0.00
 -2 9 4 0.01 0.00
 -2 9 3 1.00 0.00
 -2 9 2 -0.23 0.00
 -2 9 1 -1.01 0.00
 -2 9 0 -0.20 0.00
 2 -9 1 0.07 0.00
 2 -9 2 0.58 0.00
 2 -9 3 1.68 0.00
 2 -9 4 0.09 0.00
 2 -9 5 -1.98 0.00
 2 -9 6 0.03 0.00
 2 -9 7 2.21 0.00
 2 -9 8 1.37 0.00
 2 -9 9 1.84 0.00
 2 -9 10 3.45 0.00
 2 -9 11 2.30 0.00
 2 -9 12 1.00 0.00
 -2 8 5 -2.24 0.00
 -2 8 4 0.18 0.00
 -2 8 3 1.09 0.00
 -2 8 2 -0.07 0.00
 -2 8 1 -1.09 0.00
 -2 8 0 -0.99 0.00
 2 -8 1 -0.53 0.00
 2 -8 2 0.03 0.00
 2 -8 3 1.55 0.00
 2 -8 4 2.02 0.00
 2 -8 5 -0.62 0.00
 2 -8 6 -2.07 0.00
 2 -8 7 0.08 0.00
 2 -8 8 1.54 0.00
 2 -8 9 1.86 0.00
 2 -8 10 2.73 0.00
 2 -8 11 2.51 0.00
 2 -8 12 1.84 0.00
 2 -8 13 2.28 0.00
 -2 7 5 -3.15 0.00
 -2 7 4 -0.74 0.00
 -2 7 3 0.77 0.00
 -2 7 2 0.39 0.00
 -2 7 1 -0.31 0.00
 -2 7 0 -1.38 0.00
 2 -7 1 -2.07 0.00
 2 -7 2 -1.30 0.00
 2 -7 3 0.09 0.00
 2 -7 4 1.42 0.00
 2 -7 5 1.62 0.00
 2 -7 6 0.23 0.00
 2 -7 7 -0.54 0.00
 2 -7 8 0.42 0.00
 2 -7 9 1.93 0.00
 2 -7 10 2.41 0.00
 2 -7 11 1.86 0.00
 2 -7 12 2.23 0.00
 2 -7 13 2.71 0.00
 2 -7 14 2.23 0.00
 -2 6 6 -1.80 0.00
 -2 6 5 -1.62 0.00
 -2 6 4 -1.23 0.00
 -2 6 3 -0.43 0.00
 -2 6 2 0.63 0.00
 -2 6 1 0.79 0.00
 -2 6 0 -0.49 0.00
 2 -6 1 -2.25 0.00
 2 -6 2 -2.52 0.00
 2 -6 3 -1.47 0.00
 2 -6 4 -0.46 0.00
 2 -6 5 0.85 0.00
 2 -6 6 1.89 0.00
 2 -6 7 1.80 0.00
 2 -6 8 1.30 0.00
 2 -6 9 1.36 0.00
 2 -6 10 1.50 0.00
 2 -6 11 1.25 0.00
 2 -6 12 2.09 0.00
 2 -6 13 2.63 0.00
 2 -6 14 1.44 0.00
 -2 5 6 -1.35 0.00
 -2 5 4 1.21 0.00
 -2 5 3 0.62 0.00
 -2 5 2 1.63 0.00
 -2 5 1 1.17 0.00
 -2 5 0 -0.31 0.00
 2 -5 1 -1.01 0.00
 2 -5 2 -1.88 0.00
 2 -5 3 -2.57 0.00
 2 -5 4 -2.12 0.00
 2 -5 5 -0.41 0.00
 2 -5 6 0.90 0.00
 2 -5 7 1.66 0.00
 2 -5 8 3.02 0.00
 2 -5 9 2.95 0.00
 2 -5 10 0.98 0.00
 2 -5 11 0.08 0.00
 2 -5 12 1.50 0.00
 2 -5 13 2.39 0.00
 2 -5 14 0.70 0.00
 -2 4 6 -1.82 0.00
 -2 4 5 0.35 0.00
 -2 4 4 2.30 0.00
 -2 4 3 3.09 0.00
 -2 4 2 4.48 0.00
 -2 4 1 2.90 0.00
 -2 4 0 -0.03 0.00
 2 -4 1 -0.94 0.00
 2 -4 2 -1.51 0.00
 2 -4 3 -2.02 0.00
 2 -4 4 -2.66 0.00
 2 -4 5 -2.04 0.00
 2 -4 6 -0.04 0.00
 2 -4 7 0.29 0.00
 2 -4 8 1.35 0.00
 2 -4 9 3.53 0.00
 2 -4 10 2.57 0.00
 2 -4 11 0.28 0.00
 2 -4 12 0.53 0.00
 2 -4 13 1.86 0.00
 2 -4 14 0.77 0.00
 -2 3 6 -0.84 0.00
 -2 3 5 -1.48 0.00
 -2 3 4 0.00 0.00
 -2 3 3 2.97 0.00
 -2 3 2 5.43 0.00
 -2 3 1 3.74 0.00
 -2 3 0 1.62 0.00
 2 -3 1 0.87 0.00
 2 -3 2 -2.39 0.00
 2 -3 3 -3.13 0.00
 2 -3 4 -1.39 0.00
 2 -3 5 -2.63 0.00
 2 -3 6 -2.16 0.00
 2 -3 7 -0.16 0.00
 2 -3 8 -0.10 0.00
 2 -3 9 1.04 0.00
 2 -3 10 2.48 0.00
 2 -3 11 1.88 0.00
 2 -3 12 0.97 0.00
 2 -3 13 1.40 0.00
 2 -3 14 1.28 0.00
 -2 2 1 2.91 0.00
 -2 2 0 -0.36 0.00
 2 -2 1 1.57 0.00
 2 -2 2 0.47 0.00
 2 -2 3 -3.73 0.00
 2 -2 4 -2.35 0.00
 2 -2 5 -1.59 0.00
 2 -2 6 -3.16 0.00
 2 -2 7 -1.71 0.00
 2 -2 8 -0.22 0.00
 2 -2 9 -0.11 0.00
 2 -2 10 0.52 0.00
 2 -2 11 1.45 0.00
 2 -2 12 1.81 0.00
 2 -2 13 1.87 0.00
 2 -2 14 1.83 0.00
 -2 1 7 -2.17 0.00
 -2 1 0 -0.04 0.00
 2 -1 1 -4.08 0.00
 2 -1 2 0.44 0.00
 2 -1 3 0.96 0.00
 2 -1 4 -2.25 0.00
 2 -1 5 -2.31 0.00
 2 -1 6 -2.16 0.00
 2 -1 7 -2.34 0.00
 2 -1 8 -1.14 0.00
 2 -1 9 0.29 0.00
 2 -1 10 0.19 0.00
 2 -1 11 -0.10 0.00
 2 -1 12 1.04 0.00
 2 -1 13 2.04 0.00
 -2 0 7 -2.05 0.00
 -2 0 5 -2.03 0.00
 2 0 0 8.02 0.00
 2 0 1 -3.40 0.00
 2 0 2 -4.81 0.00
 2 0 3 2.15 0.00
 2 0 4 1.19 0.00
 2 0 5 -1.78 0.00
 2 0 6 -1.54 0.00
 2 0 7 -1.83 0.00
 2 0 8 -1.65 0.00
 2 0 9 0.49 0.00
 2 0 10 0.98 0.00
 2 0 11 -0.42 0.00
 2 0 12 0.02 0.00
 2 0 13 1.16 0.00
 -2 -1 8 -1.75 0.00
 -2 -1 7 -1.87 0.00
 -2 -1 6 1.15 0.00
 -2 -1 5 -0.03 0.00
 -2 -1 4 -3.35 0.00
 -2 -1 3 -2.95 0.00
 -2 -1 2 -3.20 0.00
 -2 -1 1 2.71 0.00
 2 1 0 10.89 0.00
 2 1 1 5.17 0.00
 2 1 2 -1.73 0.00
 2 1 3 0.46 0.00
 2 1 4 0.90 0.00
 2 1 5 -0.07 0.00
 2 1 6 0.15 0.00
 2 1 7 -1.55 0.00
 2 1 8 -2.08 0.00
 2 1 9 0.44 0.00
 2 1 10 1.50 0.00
 2 1 11 0.11 0.00
 2 1 12 0.05 0.00
 2 1 13 0.56 0.00
 -2 -2 8 -0.89 0.00
 -2 -2 7 -2.62 0.00
 -2 -2 6 0.57 0.00
 -2 -2 5 3.20 0.00
 -2 -2 4 -0.89 0.00
 -2 -2 3 -3.76 0.00
 -2 -2 2 -2.64 0.00
 -2 -2 1 1.78 0.00
 2 2 0 7.68 0.00
 2 2 1 7.16 0.00
 2 2 2 4.84 0.00
 2 2 3 4.33 0.00
 2 2 4 0.36 0.00
 2 2 5 -0.88 0.00
 2 2 6 1.31 0.00
 2 2 7 -0.67 0.00
 2 2 9 -0.65 0.00
 2 2 10 1.02 0.00
 2 2 11 0.70 0.00
 2 2 12 0.69 0.00
 2 2 13 0.82 0.00
 -2 -3 9 1.78 0.00
 -2 -3 8 0.75 0.00
 -2 -3 7 -1.60 0.00
 -2 -3 6 -1.32 0.00
 -2 -3 5 2.59 0.00
 -2 -3 4 1.91 0.00
 -2 -3 3 -2.65 0.00
 -2 -3 2 -3.24 0.00
 -2 -3 1 1.43 0.00
 2 3 0 6.71 0.00
 2 3 1 6.44 0.00
 2 3 2 5.03 0.00
 2 3 3 5.96 0.00
 2 3 4 2.63 0.00
 2 3 5 -0.67 0.00
 2 3 6 0.59 0.00
 2 3 7 -0.16 0.00
 2 3 8 -2.32 0.00
 2 3 9 -2.15 0.00
 2 3 10 -0.91 0.00
 2 3 11 0.42 0.00
 2 3 12 1.21 0.00
 -2 -4 9 1.32 0.00
 -2 -4 8 0.66 0.00
 -2 -4 7 -0.10 0.00
 -2 -4 6 -0.98 0.00
 -2 -4 5 0.12 0.00
 -2 -4 4 0.73 0.00
 -2 -4 3 -1.59 0.00
 -2 -4 2 -2.78 0.00
 -2 -4 1 -0.66 0.00
 2 4 0 4.32 0.00
 2 4 1 7.66 0.00
 2 4 2 6.02 0.00
 2 4 3 3.73 0.00
 2 4 4 2.01 0.00
 2 4 5 0.35 0.00
 2 4 6 0.13 0.00
 2 4 7 -0.33 0.00
 2 4 8 -1.52 0.00
 2 4 10 -2.88 0.00
 2 4 11 -1.06 0.00
 2 4 12 0.82 0.00
 -2 -5 9 1.55 0.00
 -2 -5 8 0.28 0.00
 -2 -5 7 0.12 0.00
 -2 -5 6 0.09 0.00
 -2 -5 5 -0.69 0.00
 -2 -5 4 -1.05 0.00
 -2 -5 3 -2.69 0.00
 -2 -5 2 -3.30 0.00
 -2 -5 1 -1.71 0.00
 2 5 0 1.06 0.00
 2 5 1 5.61 0.00
 2 5 2 7.56 0.00
 2 5 3 4.54 0.00
 2 5 4 1.32 0.00
 2 5 5 0.27 0.00
 2 5 6 -0.07 0.00
 2 5 7 -0.56 0.00
 2 5 8 -1.06 0.00
 2 5 9 -2.05 0.00
 2 5 10 -3.28 0.00
 2 5 11 -2.61 0.00
 2 5 12 -0.45 0.00
 -2 -6 10 -1.13 0.00
 -2 -6 9 0.93 0.00
 -2 -6 8 0.20 0.00
 -2 -6 7 0.18 0.00
 -2 -6 6 0.87 0.00
 -2 -6 5 -0.87 0.00
 -2 -6 4 -1.45 0.00
 -2 -6 3 -2.21 0.00
 -2 -6 2 -4.31 0.00
 -2 -6 1 -3.46 0.00
 2 6 0 -0.51 0.00
 2 6 1 2.76 0.00
 2 6 2 5.65 0.00
 2 6 3 5.37 0.00
 2 6 4 2.89 0.00
 2 6 5 1.45 0.00
 2 6 6 0.82 0.00
 2 6 7 -0.18 0.00
 2 6 8 -1.10 0.00
 2 6 9 -1.48 0.00
 2 6 10 -2.24 0.00
 2 6 11 -3.10 0.00
 -2 -7 10 -1.55 0.00
 -2 -7 9 -0.32 0.00
 -2 -7 8 -0.22 0.00
 -2 -7 7 -0.19 0.00
 -2 -7 6 1.00 0.00
 -2 -7 5 -0.42 0.00
 -2 -7 4 -1.75 0.00
 -2 -7 3 -1.11 0.00
 -2 -7 2 -2.41 0.00
 -2 -7 1 -3.68 0.00
 2 7 0 -2.00 0.00
 2 7 1 0.76 0.00
 2 7 2 3.32 0.00
 2 7 3 4.44 0.00
 2 7 4 3.49 0.00
 2 7 5 2.68 0.00
 2 7 6 2.59 0.00
 2 7 7 1.35 0.00
 2 7 8 -0.75 0.00
 2 7 9 -1.37 0.00
 2 7 10 -1.01 0.00
 2 7 11 -2.27 0.00
 -2 -8 10 -0.63 0.00
 -2 -8 9 -0.85 0.00
 -2 -8 8 -0.21 0.00
 -2 -8 7 0.11 0.00
 -2 -8 6 0.28 0.00
 -2 -8 5 -0.33 0.00
 -2 -8 4 -1.40 0.00
 -2 -8 3 -1.17 0.00
 -2 -8 2 -0.67 0.00
 -2 -8 1 -1.03 0.00
 2 8 0 -1.28 0.00
 2 8 1 -0.54 0.00
 2 8 2 1.36 0.00
 2 8 3 3.11 0.00
 2 8 4 3.10 0.00
 2 8 5 2.86 0.00
 2 8 6 3.39 0.00
 2 8 7 2.60 0.00
 2 8 8 0.14 0.00
 2 8 9 -1.57 0.00
 2 8 10 -1.03 0.00
 2 8 11 -0.80 0.00
 -2 -9 10 0.16 0.00
 -2 -9 9 -0.52 0.00
 -2 -9 8 -0.15 0.00
 -2 -9 7 1.01 0.00
 -2 -9 6 0.85 0.00
 -2 -9 5 -0.30 0.00
 -2 -9 4 -1.09 0.00
 -2 -9 3 -1.16 0.00
 -2 -9 2 -0.44 0.00
 -2 -9 1 0.41 0.00
 2 9 0 0.49 0.00
 2 9 1 0.37 0.00
 2 9 2 0.89 0.00
 2 9 3 1.73 0.00
 2 9 4 1.97 0.00
 2 9 5 2.28 0.00
 2 9 6 3.22 0.00
 2 9 7 3.19 0.00
 2 9 8 1.53 0.00
 2 9 9 -1.38 0.00
 2 9 10 -2.79 0.00
 -2 -10 10 -0.34 0.00
 -2 -10 9 -0.36 0.00
 -2 -10 8 0.30 0.00
 -2 -10 7 0.99 0.00
 -2 -10 6 1.30 0.00
 -2 -10 5 0.81 0.00
 -2 -10 4 -0.36 0.00
 -2 -10 3 -0.86 0.00
 -2 -10 2 -0.07 0.00
 -2 -10 1 0.63 0.00
 2 10 0 0.47 0.00
 2 10 1 0.84 0.00
 2 10 2 1.61 0.00
 2 10 3 1.74 0.00
 2 10 4 1.42 0.00
 2 10 5 1.15 0.00
 2 10 6 1.68 0.00
 2 10 7 2.80 0.00
 2 10 8 3.26 0.00
 2 10 9 0.62 0.00
 2 10 10 -3.63 0.00
 -2 -11 9 -1.54 0.00
 -2 -11 8 0.37 0.00
 -2 -11 7 1.50 0.00
 -2 -11 6 1.11 0.00
 -2 -11 5 0.80 0.00
 -2 -11 4 0.24 0.00
 -2 -11 3 -0.18 0.00
 -2 -11 2 0.55 0.00
 -2 -11 1 1.23 0.00
 2 11 1 0.12 0.00
 2 11 2 0.86 0.00
 2 11 3 1.57 0.00
 2 11 4 1.88 0.00
 2 11 5 1.18 0.00
 2 11 6 0.30 0.00
 2 11 7 1.22 0.00
 2 11 8 3.24 0.00
 2 11 9 2.73 0.00
 2 11 10 -1.60 0.00
 -2 -12 8 -1.28 0.00
 -2 -12 7 1.34 0.00
 -2 -12 6 2.37 0.00
 -2 -12 5 1.12 0.00
 -2 -12 4 -0.54 0.00
 -2 -12 3 -0.55 0.00
 -2 -12 2 0.60 0.00
 -2 -12 1 1.71 0.00
 2 12 0 1.68 0.00
 2 12 1 0.38 0.00
 2 12 2 -0.23 0.00
 2 12 3 0.44 0.00
 2 12 4 1.28 0.00
 2 12 5 1.08 0.00
 2 12 6 0.39 0.00
 2 12 7 0.89 0.00
 2 12 8 2.05 0.00
 2 12 9 2.39 0.00
 -2 -13 6 2.53 0.00
 -2 -13 5 3.01 0.00
 -2 -13 4 0.20 0.00
 -2 -13 3 -1.39 0.00
 -2 -13 2 -0.72 0.00
 -2 -13 1 0.92 0.00
 2 13 0 2.50 0.00
 2 13 1 1.48 0.00
 2 13 2 -0.32 0.00
 2 13 3 0.05 0.00
 2 13 4 0.57 0.00
 2 13 5 -0.14 0.00
 2 13 6 -0.12 0.00
 2 13 7 1.39 0.00
 2 13 8 1.97 0.00
 2 13 9 1.44 0.00
 -2 -14 4 1.95 0.00
 -2 -14 3 -0.33 0.00
 -2 -14 2 -1.41 0.00
 -2 -14 1 -0.66 0.00
 2 14 0 1.82 0.00
 2 14 1 2.12 0.00
 2 14 2 0.13 0.00
 2 14 3 0.05 0.00
 2 14 4 0.52 0.00
 2 14 5 -0.39 0.00
 2 14 6 -0.68 0.00
 2 14 7 0.70 0.00
 2 15 1 1.69 0.00
 2 15 2 0.72 0.00
 2 15 3 0.09 0.00
 -3 14 2 1.96 0.00
 -3 14 1 0.59 0.00
 -3 14 0 -0.85 0.00
 3 -14 1 0.58 0.00
 3 -14 2 2.46 0.00
 3 -14 3 2.40 0.00
 3 -14 4 0.08 0.00
 -3 13 2 0.68 0.00
 -3 13 1 0.97 0.00
 -3 13 0 0.17 0.00
 3 -13 1 -0.37 0.00
 3 -13 2 0.71 0.00
 3 -13 3 2.90 0.00
 3 -13 4 2.69 0.00
 3 -13 5 -0.38 0.00
 3 -13 6 -1.51 0.00
 3 -13 7 -0.34 0.00
 -3 12 3 0.29 0.00
 -3 12 2 -0.30 0.00
 -3 12 1 -0.81 0.00
 -3 12 0 -0.72 0.00
 3 -12 1 0.01 0.00
 3 -12 2 0.09 0.00
 3 -12 3 0.59 0.00
 3 -12 4 2.48 0.00
 3 -12 5 2.36 0.00
 3 -12 6 0.16 0.00
 3 -12 7 -0.92 0.00
 3 -12 8 0.19 0.00
 -3 11 3 -1.07 0.00
 -3 11 2 -0.70 0.00
 -3 11 1 -1.38 0.00
 -3 11 0 -2.39 0.00
 3 -11 1 -1.38 0.00
 3 -11 2 0.00 0.00
 3 -11 3 -0.69 0.00
 3 -11 4 0.04 0.00
 3 -11 5 2.48 0.00
 3 -11 6 2.27 0.00
 3 -11 7 0.35 0.00
 3 -11 8 0.23 0.00
 3 -11 9 1.85 0.00
 3 -11 10 2.44 0.00
 -3 10 3 -1.48 0.00
 -3 10 2 -1.40 0.00
 -3 10 1 -1.36 0.00
 -3 10 0 -1.90 0.00
 3 -10 1 -2.12 0.00
 3 -10 2 -1.23 0.00
 3 -10 3 -1.42 0.00
 3 -10 4 -1.71 0.00
 3 -10 5 0.73 0.00
 3 -10 6 2.65 0.00
 3 -10 7 1.35 0.00
 3 -10 8 0.63 0.00
 3 -10 9 2.34 0.00
 3 -10 10 2.92 0.00
 3 -10 11 1.23 0.00
 -3 9 4 -1.92 0.00
 -3 9 3 -1.46 0.00
 -3 9 2 -1.76 0.00
 -3 9 1 -1.58 0.00
 -3 9 0 -1.03 0.00
 3 -9 1 -1.30 0.00
 3 -9 2 -1.57 0.00
 3 -9 3 -1.40 0.00
 3 -9 4 -1.95 0.00
 3 -9 5 -1.48 0.00
 3 -9 6 1.12 0.00
 3 -9 7 2.00 0.00
 3 -9 8 0.81 0.00
 3 -9 9 1.90 0.00
 3 -9 10 3.72 0.00
 3 -9 11 2.46 0.00
 3 -9 12 0.72 0.00
 -3 8 4 -2.16 0.00
 -3 8 3 -1.45 0.00
 -3 8 2 -2.28 0.00
 -3 8 1 -1.91 0.00
 -3 8 0 -0.82 0.00
 3 -8 1 -1.02 0.00
 3 -8 2 -1.66 0.00
 3 -8 3 -0.77 0.00
 3 -8 4 -0.17 0.00
 3 -8 5 -1.41 0.00
 3 -8 6 -1.30 0.00
 3 -8 7 0.61 0.00
 3 -8 8 1.26 0.00
 3 -8 9 1.70 0.00
 3 -8 10 3.01 0.00
 3 -8 11 3.12 0.00
 3 -8 12 2.09 0.00
 3 -8 13 1.70 0.00
 -3 7 4 -3.39 0.00
 -3 7 3 -1.16 0.00
 -3 7 2 -1.64 0.00
 -3 7 1 -1.77 0.00
 -3 7 0 -1.25 0.00
 3 -7 1 -1.80 0.00
 3 -7 2 -2.30 0.00
 3 -7 3 -1.02 0.00
 3 -7 4 0.73 0.00
 3 -7 5 0.55 0.00
 3 -7 6 -0.61 0.00
 3 -7 7 -1.04 0.00
 3 -7 8 -0.44 0.00
 3 -7 9 1.49 0.00
 3 -7 10 2.77 0.00
 3 -7 11 2.51 0.00
 3 -7 12 2.58 0.00
 3 -7 13 2.20 0.00
 3 -7 14 1.27 0.00
 -3 6 4 -5.84 0.00
 -3 6 3 -3.10 0.00
 -3 6 2 -0.86 0.00
 -3 6 1 -0.13 0.00
 -3 6 0 -0.73 0.00
 3 -6 1 -2.41 0.00
 3 -6 2 -3.37 0.00
 3 -6 3 -2.05 0.00
 3 -6 4 0.06 0.00
 3 -6 5 0.73 0.00
 3 -6 6 0.70 0.00
 3 -6 7 0.37 0.00
 3 -6 8 -0.94 0.00
 3 -6 9 -0.48 0.00
 3 -6 10 1.71 0.00
 3 -6 11 2.33 0.00
 3 -6 12 2.53 0.00
 3 -6 13 1.92 0.00
 3 -6 14 0.20 0.00
 -3 5 4 -4.94 0.00
 -3 5 3 -4.85 0.00
 -3 5 2 -1.97 0.00
 -3 5 1 0.10 0.00
 -3 5 0 0.11 0.00
 3 -5 1 -1.10 0.00
 3 -5 2 -3.03 0.00
 3 -5 3 -3.63 0.00
 3 -5 4 -1.63 0.00
 3 -5 5 0.19 0.00
 3 -5 6 0.02 0.00
 3 -5 7 0.45 0.00
 3 -5 8 1.02 0.00
 3 -5 9 0.06 0.00
 3 -5 10 -0.14 0.00
 3 -5 11 1.07 0.00
 3 -5 12 2.50 0.00
 3 -5 13 1.91 0.00
 3 -5 14 -0.84 0.00
 3 -5 15 -1.12 0.00
 -3 4 5 -1.42 0.00
 -3 4 4 -1.74 0.00
 -3 4 3 -2.92 0.00
 -3 4 2 -1.79 0.00
 -3 4 1 -1.08 0.00
 -3 4 0 -0.94 0.00
 3 -4 1 -0.43 0.00
 3 -4 2 -1.47 0.00
 3 -4 3 -3.43 0.00
 3 -4 4 -3.68 0.00
 3 -4 5 -1.50 0.00
 3 -4 6 -0.31 0.00
 3 -4 7 -0.82 0.00
 3 -4 8 0.46 0.00
 3 -4 9 1.85 0.00
 3 -4 10 0.99 0.00
 3 -4 11 0.26 0.00
 3 -4 12 1.41 0.00
 3 -4 13 1.97 0.00
 3 -4 14 -0.49 0.00
 3 -4 15 -2.02 0.00
 -3 3 3 -1.02 0.00
 -3 3 2 -0.55 0.00
 -3 3 1 -1.77 0.00
 -3 3 0 -1.69 0.00
 3 -3 1 -0.22 0.00
 3 -3 2 -1.80 0.00
 3 -3 3 -3.22 0.00
 3 -3 4 -3.33 0.00
 3 -3 5 -3.66 0.00
 3 -3 6 -2.11 0.00
 3 -3 7 -0.70 0.00
 3 -3 8 -0.49 0.00
 3 -3 9 0.81 0.00
 3 -3 10 2.14 0.00
 3 -3 11 1.82 0.00
 3 -3 12 1.14 0.00
 3 -3 13 1.49 0.00
 3 -3 14 0.61 0.00
 3 -3 15 -1.41 0.00
 -3 2 2 -1.28 0.00
 -3 2 1 -3.45 0.00
 -3 2 0 -3.39 0.00
 3 -2 1 0.81 0.00
 3 -2 2 -0.44 0.00
 3 -2 3 -4.22 0.00
 3 -2 4 -3.37 0.00
 3 -2 5 -3.49 0.00
 3 -2 6 -4.23 0.00
 3 -2 7 -1.87 0.00
 3 -2 8 -0.03 0.00
 3 -2 9 0.10 0.00
 3 -2 10 0.98 0.00
 3 -2 11 2.24 0.00
 3 -2 12 1.91 0.00
 3 -2 13 1.54 0.00
 3 -2 14 1.57 0.00
 3 -2 15 -0.01 0.00
 -3 1 2 -3.76 0.00
 -3 1 1 -4.72 0.00
 -3 1 0 -5.78 0.00
 3 -1 1 -1.94 0.00
 3 -1 2 1.52 0.00
 3 -1 3 -1.31 0.00
 3 -1 4 -3.59 0.00
 3 -1 5 -3.54 0.00
 3 -1 6 -4.01 0.00
 3 -1 7 -3.07 0.00
 3 -1 8 -0.75 0.00
 3 -1 9 0.44 0.00
 3 -1 10 0.32 0.00
 3 -1 11 0.85 0.00
 3 -1 12 1.38 0.00
 3 -1 13 1.40 0.00
 3 -1 14 2.09 0.00
 3 -1 15 1.37 0.00
 -3 0 3 -4.32 0.00
 -3 0 2 -5.80 0.00
 -3 0 1 -5.37 0.00
 3 0 0 -4.48 0.00
 3 0 1 -4.32 0.00
 3 0 2 -0.82 0.00
 3 0 3 1.40 0.00
 3 0 4 -0.68 0.00
 3 0 5 -2.76 0.00
 3 0 6 -3.30 0.00
 3 0 7 -2.87 0.00
 3 0 8 -1.39 0.00
 3 0 9 0.30 0.00
 3 0 10 0.17 0.00
 3 0 11 -0.36 0.00
 3 0 12 0.26 0.00
 3 0 13 0.32 0.00
 3 0 14 1.07 0.00
 -3 -1 6 1.95 0.00
 -3 -1 5 1.57 0.00
 -3 -1 4 -2.61 0.00
 -3 -1 3 -3.02 0.00
 -3 -1 2 -4.45 0.00
 -3 -1 1 -5.42 0.00
 3 1 0 -3.15 0.00
 3 1 1 -2.34 0.00
 3 1 2 -0.99 0.00
 3 1 3 0.78 0.00
 3 1 4 0.26 0.00
 3 1 5 -0.37 0.00
 3 1 6 -1.39 0.00
 3 1 7 -2.68 0.00
 3 1 8 -1.67 0.00
 3 1 9 0.43 0.00
 3 1 10 0.08 0.00
 3 1 11 -1.25 0.00
 3 1 12 -0.39 0.00
 3 1 13 -0.22 0.00
 3 1 14 -0.81 0.00
 -3 -2 7 -1.38 0.00
 -3 -2 6 1.28 0.00
 -3 -2 5 3.47 0.00
 -3 -2 4 -0.91 0.00
 -3 -2 3 -3.13 0.00
 -3 -2 2 -2.40 0.00
 -3 -2 1 -2.50 0.00
 3 2 0 -2.50 0.00
 3 2 1 -2.18 0.00
 3 2 2 0.69 0.00
 3 2 3 2.11 0.00
 3 2 4 -0.53 0.00
 3 2 5 -0.32 0.00
 3 2 6 0.64 0.00
 3 2 7 -1.84 0.00
 3 2 8 -2.32 0.00
 3 2 9 0.01 0.00
 3 2 10 0.22 0.00
 3 2 11 -1.25 0.00
 3 2 12 -0.62 0.00
 3 2 13 0.09 0.00
 3 2 14 -1.32 0.00
 -3 -3 7 -0.30 0.00
 -3 -3 6 -0.33 0.00
 -3 -3 5 2.84 0.00
 -3 -3 4 1.02 0.00
 -3 -3 3 -2.65 0.00
 -3 -3 2 -2.73 0.00
 -3 -3 1 -0.83 0.00
 3 3 0 0.06 0.00
 3 3 1 -1.82 0.00
 3 3 2 -1.23 0.00
 3 3 3 1.52 0.00
 3 3 4 0.00 0.00
 3 3 5 -0.84 0.00
 3 3 6 0.62 0.00
 3 3 7 -0.95 0.00
 3 3 8 -2.26 0.00
 3 3 9 -1.04 0.00
 3 3 10 -0.52 0.00
 3 3 11 -0.79 0.00
 3 3 12 -0.13 0.00
 3 3 13 0.64 0.00
 3 3 14 -0.25 0.00
 -3 -4 8 1.09 0.00
 -3 -4 7 0.72 0.00
 -3 -4 6 -0.52 0.00
 -3 -4 5 0.32 0.00
 -3 -4 4 0.13 0.00
 -3 -4 3 -1.93 0.00
 -3 -4 2 -2.85 0.00
 -3 -4 1 -2.29 0.00
 3 4 0 -0.02 0.00
 3 4 1 0.53 0.00
 3 4 2 -1.51 0.00
 3 4 3 -1.91 0.00
 3 4 4 -1.64 0.00
 3 4 5 -1.20 0.00
 3 4 6 -0.06 0.00
 3 4 7 -0.74 0.00
 3 4 8 -1.62 0.00
 3 4 9 -1.26 0.00
 3 4 10 -1.34 0.00
 3 4 11 -1.08 0.00
 3 4 12 0.07 0.00
 3 4 13 1.07 0.00
 -3 -5 8 -0.93 0.00
 -3 -5 7 -0.04 0.00
 -3 -5 6 0.05 0.00
 -3 -5 5 -1.18 0.00
 -3 -5 4 -1.78 0.00
 -3 -5 2 -3.07 0.00
 -3 -5 1 -3.24 0.00
 3 5 0 -2.11 0.00
 3 5 1 0.08 0.00
 3 5 2 -0.24 0.00
 3 5 3 -2.21 0.00
 3 5 4 -2.90 0.00
 3 5 5 -2.23 0.00
 3 5 6 -1.04 0.00
 3 5 7 -0.83 0.00
 3 5 8 -1.22 0.00
 3 5 9 -0.86 0.00
 3 5 10 -0.84 0.00
 3 5 11 -1.25 0.00
 3 5 12 -0.71 0.00
 3 5 13 0.43 0.00
 -3 -6 8 -1.36 0.00
 -3 -6 7 -0.81 0.00
 -3 -6 6 0.84 0.00
 -3 -6 5 -1.26 0.00
 -3 -6 4 -2.61 0.00
 -3 -6 3 -2.30 0.00
 -3 -6 2 -3.27 0.00
 -3 -6 1 -3.97 0.00
 3 6 0 -2.90 0.00
 3 6 1 -1.11 0.00
 3 6 2 -0.67 0.00
 3 6 3 -1.51 0.00
 3 6 4 -1.74 0.00
 3 6 5 -1.29 0.00
 3 6 6 -0.78 0.00
 3 6 7 -0.64 0.00
 3 6 8 -1.15 0.00
 3 6 9 -0.73 0.00
 3 6 10 0.14 0.00
 3 6 11 -0.72 0.00
 3 6 12 -1.38 0.00
 3 6 13 -0.82 0.00
 -3 -7 9 -0.51 0.00
 -3 -7 8 -1.52 0.00
 -3 -7 7 -1.25 0.00
 -3 -7 6 1.41 0.00
 -3 -7 5 0.20 0.00
 -3 -7 4 -2.13 0.00
 -3 -7 3 -1.28 0.00
 -3 -7 2 -1.35 0.00
 -3 -7 1 -3.17 0.00
 3 7 0 -3.37 0.00
 3 7 1 -1.69 0.00
 3 7 2 -0.49 0.00
 3 7 3 -0.97 0.00
 3 7 4 -1.35 0.00
 3 7 5 -0.19 0.00
 3 7 6 1.03 0.00
 3 7 7 0.83 0.00
 3 7 8 -0.50 0.00
 3 7 9 -0.58 0.00
 3 7 10 0.81 0.00
 3 7 11 -0.10 0.00
 3 7 12 -1.65 0.00
 -3 -8 9 -1.30 0.00
 -3 -8 8 -1.73 0.00
 -3 -8 7 -1.14 0.00
 -3 -8 6 0.88 0.00
 -3 -8 5 0.98 0.00
 -3 -8 4 -0.65 0.00
 -3 -8 3 -0.50 0.00
 -3 -8 2 0.50 0.00
 -3 -8 1 -0.12 0.00
 3 8 0 -1.89 0.00
 3 8 1 -2.32 0.00
 3 8 2 -0.53 0.00
 3 8 3 0.31 0.00
 3 8 4 -0.86 0.00
 3 8 5 -0.49 0.00
 3 8 6 1.46 0.00
 3 8 7 1.94 0.00
 3 8 8 0.70 0.00
 3 8 9 -0.14 0.00
 3 8 10 1.02 0.00
 3 8 11 0.98 0.00
 3 8 12 -1.13 0.00
 -3 -9 9 -0.74 0.00
 -3 -9 8 -1.47 0.00
 -3 -9 7 -0.32 0.00
 -3 -9 6 1.17 0.00
 -3 -9 5 0.82 0.00
 -3 -9 4 -0.34 0.00
 -3 -9 3 -0.33 0.00
 -3 -9 2 0.68 0.00
 -3 -9 1 1.33 0.00
 3 9 0 0.49 0.00
 3 9 1 -0.93 0.00
 3 9 2 -0.59 0.00
 3 9 3 0.44 0.00
 3 9 4 -0.25 0.00
 3 9 5 -0.46 0.00
 3 9 6 0.93 0.00
 3 9 7 1.73 0.00
 3 9 8 1.57 0.00
 3 9 9 0.19 0.00
 3 9 10 -0.18 0.00
 3 9 11 1.60 0.00
 3 9 12 1.11 0.00
 -3 -10 9 0.20 0.00
 -3 -10 8 -0.27 0.00
 -3 -10 7 0.16 0.00
 -3 -10 6 1.62 0.00
 -3 -10 5 1.71 0.00
 -3 -10 4 -0.02 0.00
 -3 -10 3 -0.89 0.00
 -3 -10 2 -0.14 0.00
 -3 -10 1 0.34 0.00
 3 10 0 0.15 0.00
 3 10 2 0.64 0.00
 3 10 3 0.70 0.00
 3 10 4 0.02 0.00
 3 10 5 -0.42 0.00
 3 10 6 0.35 0.00
 3 10 7 1.49 0.00
 3 10 8 2.69 0.00
 3 10 9 1.37 0.00
 3 10 10 -1.58 0.00
 3 10 11 0.13 0.00
 -3 -11 8 0.92 0.00
 -3 -11 7 1.13 0.00
 -3 -11 6 1.21 0.00
 -3 -11 5 1.48 0.00
 -3 -11 4 0.70 0.00
 -3 -11 3 -0.34 0.00
 -3 -11 2 -0.43 0.00
 -3 -11 1 -0.87 0.00
 3 11 0 -1.64 0.00
 3 11 1 -0.81 0.00
 3 11 2 0.51 0.00
 3 11 3 1.08 0.00
 3 11 4 1.25 0.00
 3 11 5 0.47 0.00
 3 11 6 -0.05 0.00
 3 11 7 1.22 0.00
 3 11 8 3.51 0.00
 3 11 9 3.19 0.00
 3 11 10 -0.61 0.00
 3 11 11 -0.91 0.00
 -3 -12 7 1.77 0.00
 -3 -12 6 1.91 0.00
 -3 -12 5 0.60 0.00
 -3 -12 4 -0.64 0.00
 -3 -12 3 -0.15 0.00
 -3 -12 2 0.53 0.00
 -3 -12 1 -0.60 0.00
 3 12 0 -2.14 0.00
 3 12 1 -1.83 0.00
 3 12 2 -0.85 0.00
 3 12 3 -0.09 0.00
 3 12 4 1.57 0.00
 3 12 5 2.00 0.00
 3 12 6 1.06 0.00
 3 12 7 1.80 0.00
 3 12 8 3.47 0.00
 3 12 9 3.40 0.00
 3 12 10 1.08 0.00
 3 12 11 0.19 0.00
 -3 -13 5 1.45 0.00
 -3 -13 4 -1.65 0.00
 -3 -13 3 -1.71 0.00
 -3 -13 2 0.34 0.00
 -3 -13 1 0.34 0.00
 3 13 0 -1.02 0.00
 3 13 1 -1.47 0.00
 3 13 2 -1.19 0.00
 3 13 3 -0.88 0.00
 3 13 4 0.40 0.00
 3 13 5 1.63 0.00
 3 13 6 2.06 0.00
 3 13 7 3.33 0.00
 3 13 8 3.86 0.00
 3 13 9 2.53 0.00
 -3 -14 3 -2.08 0.00
 -3 -14 2 -0.85 0.00
 -3 -14 1 0.11 0.00
 3 14 0 0.07 0.00
 3 14 1 -0.61 0.00
 3 14 2 -0.92 0.00
 3 14 3 -0.45 0.00
 3 14 4 -0.02 0.00
 3 14 5 0.40 0.00
 3 14 6 1.42 0.00
 3 14 7 3.41 0.00
 -4 14 1 -0.34 0.00
 -4 14 0 0.52 0.00
 4 -14 1 3.15 0.00
 -4 13 1 0.51 0.00
 -4 13 0 0.60 0.00
 4 -13 1 1.48 0.00
 4 -13 2 1.80 0.00
 4 -13 3 2.12 0.00
 4 -13 4 2.03 0.00
 4 -13 5 0.96 0.00
 4 -13 6 0.62 0.00
 -4 12 2 0.45 0.00
 -4 12 1 0.00 0.00
 -4 12 0 0.27 0.00
 4 -12 1 1.40 0.00
 4 -12 2 0.64 0.00
 4 -12 3 -0.27 0.00
 4 -12 4 1.41 0.00
 4 -12 5 2.90 0.00
 4 -12 6 2.35 0.00
 4 -12 7 1.06 0.00
 4 -12 8 0.69 0.00
 -4 11 2 0.50 0.00
 -4 11 1 -0.34 0.00
 -4 11 0 -1.14 0.00
 4 -11 1 0.35 0.00
 4 -11 2 0.75 0.00
 4 -11 3 -1.22 0.00
 4 -11 4 -0.88 0.00
 4 -11 5 2.27 0.00
 4 -11 6 3.84 0.00
 4 -11 7 2.78 0.00
 4 -11 8 1.40 0.00
 4 -11 9 1.04 0.00
 4 -11 10 0.61 0.00
 -4 10 2 -0.14 0.00
 -4 10 1 -0.46 0.00
 -4 10 0 -1.54 0.00
 4 -10 1 -1.02 0.00
 4 -10 2 -0.41 0.00
 4 -10 3 -1.35 0.00
 4 -10 4 -1.59 0.00
 4 -10 5 0.72 0.00
 4 -10 6 3.01 0.00
 4 -10 7 2.98 0.00
 4 -10 8 2.15 0.00
 4 -10 9 1.83 0.00
 4 -10 10 0.83 0.00
 4 -10 11 -1.01 0.00
 -4 9 2 -0.84 0.00
 -4 9 1 -0.58 0.00
 -4 9 0 -1.23 0.00
 4 -9 1 -1.46 0.00
 4 -9 2 -1.59 0.00
 4 -9 3 -1.75 0.00
 4 -9 4 -1.66 0.00
 4 -9 5 -0.68 0.00
 4 -9 6 1.27 0.00
 4 -9 7 2.06 0.00
 4 -9 8 1.25 0.00
 4 -9 9 1.29 0.00
 4 -9 10 1.58 0.00
 4 -9 11 -0.34 0.00
 4 -9 12 -2.26 0.00
 -4 8 3 -2.48 0.00
 -4 8 2 -2.18 0.00
 -4 8 1 -0.87 0.00
 -4 8 0 -0.45 0.00
 4 -8 1 -1.50 0.00
 4 -8 2 -2.52 0.00
 4 -8 3 -1.84 0.00
 4 -8 4 -0.98 0.00
 4 -8 5 -1.52 0.00
 4 -8 6 -1.27 0.00
 4 -8 7 0.10 0.00
 4 -8 8 0.39 0.00
 4 -8 9 0.19 0.00
 4 -8 10 0.60 0.00
 4 -8 11 0.25 0.00
 4 -8 12 -1.45 0.00
 4 -8 13 -1.72 0.00
 -4 7 3 -1.88 0.00
 -4 7 2 -2.58 0.00
 -4 7 1 -1.67 0.00
 -4 7 0 -0.39 0.00
 4 -7 1 -1.37 0.00
 4 -7 2 -2.95 0.00
 4 -7 3 -2.14 0.00
 4 -7 4 -0.71 0.00
 4 -7 5 -1.25 0.00
 4 -7 6 -2.04 0.00
 4 -7 7 -2.27 0.00
 4 -7 8 -2.01 0.00
 4 -7 9 -0.38 0.00
 4 -7 10 0.41 0.00
 4 -7 11 -0.27 0.00
 4 -7 12 -0.76 0.00
 4 -7 13 -1.21 0.00
 4 -7 14 -0.65 0.00
 -4 6 3 -2.32 0.00
 -4 6 2 -1.39 0.00
 -4 6 1 -0.64 0.00
 -4 6 0 -0.38 0.00
 4 -6 1 -1.78 0.00
 4 -6 2 -3.13 0.00
 4 -6 3 -2.07 0.00
 4 -6 4 -0.88 0.00
 4 -6 5 -1.89 0.00
 4 -6 6 -1.91 0.00
 4 -6 7 -1.55 0.00
 4 -6 8 -3.44 0.00
 4 -6 9 -2.76 0.00
 4 -6 10 0.27 0.00
 4 -6 11 0.58 0.00
 4 -6 12 -0.10 0.00
 4 -6 13 -0.80 0.00
 4 -6 14 -1.02 0.00
 -4 5 3 -5.10 0.00
 -4 5 2 -2.20 0.00
 -4 5 1 0.41 0.00
 -4 5 0 1.02 0.00
 4 -5 1 -0.73 0.00
 4 -5 2 -2.95 0.00
 4 -5 3 -2.65 0.00
 4 -5 4 -0.77 0.00
 4 -5 5 -1.63 0.00
 4 -5 6 -3.04 0.00
 4 -5 7 -1.26 0.00
 4 -5 8 -1.14 0.00
 4 -5 9 -2.90 0.00
 4 -5 10 -1.59 0.00
 4 -5 11 0.66 0.00
 4 -5 12 1.47 0.00
 4 -5 13 0.28 0.00
 4 -5 14 -1.45 0.00
 4 -5 15 -0.13 0.00
 -4 4 3 -6.57 0.00
 -4 4 2 -4.24 0.00
 -4 4 1 -1.36 0.00
 -4 4 0 0.66 0.00
 4 -4 1 1.14 0.00
 4 -4 2 -0.80 0.00
 4 -4 3 -2.80 0.00
 4 -4 4 -2.00 0.00
 4 -4 5 -0.72 0.00
 4 -4 6 -2.11 0.00
 4 -4 7 -2.47 0.00
 4 -4 8 -0.47 0.00
 4 -4 9 -0.21 0.00
 4 -4 10 -0.96 0.00
 4 -4 11 -0.34 0.00
 4 -4 12 1.40 0.00
 4 -4 13 1.64 0.00
 4 -4 14 -0.70 0.00
 4 -4 15 -0.93 0.00
 -4 3 3 -5.28 0.00
 -4 3 2 -4.65 0.00
 -4 3 1 -3.51 0.00
 -4 3 0 -1.56 0.00
 4 -3 1 1.00 0.00
 4 -3 2 0.61 0.00
 4 -3 3 -1.55 0.00
 4 -3 4 -2.55 0.00
 4 -3 5 -1.75 0.00
 4 -3 6 -0.92 0.00
 4 -3 7 -1.24 0.00
 4 -3 8 -0.96 0.00
 4 -3 9 0.06 0.00
 4 -3 10 0.74 0.00
 4 -3 11 0.59 0.00
 4 -3 12 0.57 0.00
 4 -3 13 1.39 0.00
 4 -3 14 0.47 0.00
 4 -3 15 -0.92 0.00
 4 -3 16 -0.28 0.00
 -4 2 3 -3.67 0.00
 -4 2 2 -3.98 0.00
 -4 2 1 -4.71 0.00
 -4 2 0 -3.62 0.00
 4 -2 1 0.10 0.00
 4 -2 2 0.59 0.00
 4 -2 3 -1.36 0.00
 4 -2 4 -2.06 0.00
 4 -2 5 -2.47 0.00
 4 -2 6 -1.98 0.00
 4 -2 7 -0.41 0.00
 4 -2 8 0.34 0.00
 4 -2 9 -0.11 0.00
 4 -2 10 0.26 0.00
 4 -2 11 1.12 0.00
 4 -2 12 0.51 0.00
 4 -2 13 0.62 0.00
 4 -2 14 0.96 0.00
 4 -2 15 -0.55 0.00
 4 -2 16 -0.87 0.00
 -4 1 3 -3.65 0.00
 -4 1 2 -3.75 0.00
 -4 1 1 -4.98 0.00
 -4 1 0 -5.23 0.00
 4 -1 1 -2.03 0.00
 4 -1 2 0.31 0.00
 4 -1 3 -0.70 0.00
 4 -1 4 -1.92 0.00
 4 -1 5 -2.70 0.00
 4 -1 6 -2.70 0.00
 4 -1 7 -1.30 0.00
 4 -1 8 0.37 0.00
 4 -1 9 0.69 0.00
 4 -1 10 0.12 0.00
 4 -1 11 0.28 0.00
 4 -1 12 -0.23 0.00
 4 -1 13 -0.37 0.00
 4 -1 14 0.92 0.00
 4 -1 15 -0.05 0.00
 4 -1 16 -1.33 0.00
 -4 0 4 -3.05 0.00
 -4 0 3 -3.59 0.00
 -4 0 2 -4.22 0.00
 -4 0 1 -4.92 0.00
 4 0 0 -4.99 0.00
 4 0 1 -4.18 0.00
 4 0 2 -2.07 0.00
 4 0 3 -0.27 0.00
 4 0 4 -0.50 0.00
 4 0 5 -2.42 0.00
 4 0 6 -2.96 0.00
 4 0 7 -1.64 0.00
 4 0 8 -0.48 0.00
 4 0 9 0.29 0.00
 4 0 10 0.21 0.00
 4 0 11 -0.05 0.00
 4 0 12 -0.65 0.00
 4 0 13 -1.59 0.00
 4 0 14 -0.40 0.00
 4 0 15 0.32 0.00
 4 0 16 -1.16 0.00
 -4 -1 5 1.64 0.00
 -4 -1 4 -1.60 0.00
 -4 -1 3 -2.38 0.00
 -4 -1 2 -3.41 0.00
 -4 -1 1 -4.83 0.00
 4 1 0 -4.48 0.00
 4 1 1 -4.02 0.00
 4 1 2 -3.46 0.00
 4 1 3 -1.88 0.00
 4 1 4 -0.16 0.00
 4 1 5 -0.72 0.00
 4 1 6 -2.46 0.00
 4 1 7 -2.01 0.00
 4 1 8 -0.56 0.00
 4 1 9 0.05 0.00
 4 1 10 -0.36 0.00
 4 1 11 -0.71 0.00
 4 1 12 -0.31 0.00
 4 1 13 -1.27 0.00
 4 1 14 -2.01 0.00
 4 1 15 -0.63 0.00
 -4 -2 5 2.32 0.00
 -4 -2 4 -0.45 0.00
 -4 -2 3 -1.68 0.00
 -4 -2 2 -1.88 0.00
 -4 -2 1 -3.23 0.00
 4 2 0 -4.12 0.00
 4 2 1 -4.25 0.00
 4 2 2 -3.13 0.00
 4 2 3 -2.18 0.00
 4 2 4 -1.23 0.00
 4 2 5 0.05 0.00
 4 2 6 -1.07 0.00
 4 2 7 -2.26 0.00
 4 2 8 -0.89 0.00
 4 2 9 0.28 0.00
 4 2 10 -0.32 0.00
 4 2 11 -1.17 0.00
 4 2 12 -0.51 0.00
 4 2 13 -0.26 0.00
 4 2 14 -1.80 0.00
 4 2 15 -1.84 0.00
 -4 -3 6 -0.69 0.00
 -4 -3 5 1.56 0.00
 -4 -3 4 0.41 0.00
 -4 -3 3 -1.15 0.00
 -4 -3 2 -1.52 0.00
 -4 -3 1 -2.13 0.00
 4 3 0 -2.51 0.00
 4 3 1 -3.85 0.00
 4 3 2 -4.10 0.00
 4 3 3 -2.65 0.00
 4 3 4 -1.50 0.00
 4 3 5 0.13 0.00
 4 3 6 -0.06 0.00
 4 3 7 -1.85 0.00
 4 3 8 -1.25 0.00
 4 3 9 -0.12 0.00
 4 3 10 -0.47 0.00
 4 3 11 -0.70 0.00
 4 3 12 -0.28 0.00
 4 3 13 0.04 0.00
 4 3 14 -0.75 0.00
 4 3 15 -1.61 0.00
 -4 -4 6 -0.88 0.00
 -4 -4 5 -0.13 0.00
 -4 -4 4 0.02 0.00
 -4 -4 3 -0.54 0.00
 -4 -4 2 -1.25 0.00
 -4 -4 1 -2.72 0.00
 4 4 0 -2.31 0.00
 4 4 1 -2.06 0.00
 4 4 2 -3.66 0.00
 4 4 3 -3.95 0.00
 4 4 4 -2.70 0.00
 4 4 5 -0.67 0.00
 4 4 6 0.31 0.00
 4 4 7 -0.83 0.00
 4 4 8 -0.95 0.00
 4 4 9 -0.34 0.00
 4 4 10 -0.93 0.00
 4 4 11 -0.81 0.00
 4 4 12 0.19 0.00
 4 4 13 0.55 0.00
 4 4 14 0.19 0.00
 4 4 15 -0.74 0.00
 -4 -5 7 0.27 0.00
 -4 -5 6 -0.37 0.00
 -4 -5 5 -1.37 0.00
 -4 -5 4 -0.93 0.00
 -4 -5 3 -0.23 0.00
 -4 -5 2 -0.87 0.00
 -4 -5 1 -2.93 0.00
 4 5 0 -3.20 0.00
 4 5 1 -2.11 0.00
 4 5 2 -2.59 0.00
 4 5 3 -2.88 0.00
 4 5 4 -2.58 0.00
 4 5 5 -2.40 0.00
 4 5 6 -1.11 0.00
 4 5 7 -0.18 0.00
 4 5 8 -0.36 0.00
 4 5 9 -0.11 0.00
 4 5 10 -0.28 0.00
 4 5 11 -0.94 0.00
 4 5 12 -0.42 0.00
 4 5 13 0.74 0.00
 4 5 14 1.27 0.00
 -4 -6 7 -0.69 0.00
 -4 -6 6 0.26 0.00
 -4 -6 5 -1.92 0.00
 -4 -6 4 -2.21 0.00
 -4 -6 3 0.10 0.00
 -4 -6 2 -0.23 0.00
 -4 -6 1 -2.71 0.00
 4 6 0 -3.09 0.00
 4 6 1 -2.49 0.00
 4 6 2 -3.21 0.00
 4 6 3 -2.32 0.00
 4 6 4 -0.46 0.00
 4 6 5 -1.46 0.00
 4 6 6 -2.17 0.00
 4 6 7 -0.63 0.00
 4 6 8 -0.36 0.00
 4 6 9 -0.27 0.00
 4 6 10 0.67 0.00
 4 6 11 -0.22 0.00
 4 6 12 -1.03 0.00
 4 6 13 0.14 0.00
 4 6 14 1.33 0.00
 -4 -7 7 -0.81 0.00
 -4 -7 6 1.25 0.00
 -4 -7 5 -0.68 0.00
 -4 -7 4 -2.73 0.00
 -4 -7 3 -0.37 0.00
 -4 -7 2 0.78 0.00
 -4 -7 1 -1.66 0.00
 4 7 0 -2.89 0.00
 4 7 1 -2.30 0.00
 4 7 2 -2.87 0.00
 4 7 3 -2.87 0.00
 4 7 4 -0.69 0.00
 4 7 5 0.08 0.00
 4 7 6 -0.68 0.00
 4 7 7 -0.20 0.00
 4 7 8 -0.32 0.00
 4 7 9 -0.45 0.00
 4 7 10 0.97 0.00
 4 7 11 0.08 0.00
 4 7 12 -1.43 0.00
 4 7 13 -0.16 0.00
 4 7 14 0.62 0.00
 -4 -8 7 -0.94 0.00
 -4 -8 6 1.26 0.00
 -4 -8 5 0.55 0.00
 -4 -8 4 -1.43 0.00
 -4 -8 3 -0.56 0.00
 -4 -8 2 0.95 0.00
 -4 -8 1 0.05 0.00
 4 8 0 -1.96 0.00
 4 8 1 -2.70 0.00
 4 8 2 -2.20 0.00
 4 8 3 -2.03 0.00
 4 8 4 -1.81 0.00
 4 8 5 -0.73 0.00
 4 8 6 0.08 0.00
 4 8 7 0.58 0.00
 4 8 8 0.46 0.00
 4 8 9 0.22 0.00
 4 8 10 1.43 0.00
 4 8 11 0.53 0.00
 4 8 12 -1.99 0.00
 4 8 13 -0.97 0.00
 -4 -9 8 -2.83 0.00
 -4 -9 7 -1.07 0.00
 -4 -9 6 0.99 0.00
 -4 -9 5 0.30 0.00
 -4 -9 4 -1.05 0.00
 -4 -9 3 -0.31 0.00
 -4 -9 2 0.80 0.00
 -4 -9 1 0.64 0.00
 4 9 0 -0.70 0.00
 4 9 1 -2.23 0.00
 4 9 2 -2.08 0.00
 4 9 3 -1.40 0.00
 4 9 4 -1.86 0.00
 4 9 5 -1.39 0.00
 4 9 6 -0.36 0.00
 4 9 7 -0.09 0.00
 4 9 8 0.54 0.00
 4 9 9 0.80 0.00
 4 9 10 1.48 0.00
 4 9 11 1.83 0.00
 4 9 12 -0.66 0.00
 4 9 13 -1.83 0.00
 -4 -10 8 -1.82 0.00
 -4 -10 7 -0.93 0.00
 -4 -10 6 0.87 0.00
 -4 -10 5 0.53 0.00
 -4 -10 4 -1.28 0.00
 -4 -10 3 -1.13 0.00
 -4 -10 2 0.17 0.00
 -4 -10 1 0.03 0.00
 4 10 0 -1.00 0.00
 4 10 1 -1.58 0.00
 4 10 2 -1.26 0.00
 4 10 3 -0.83 0.00
 4 10 4 -1.54 0.00
 4 10 5 -1.42 0.00
 4 10 6 -0.31 0.00
 4 10 7 -0.37 0.00
 4 10 8 0.22 0.00
 4 10 9 0.60 0.00
 4 10 10 0.23 0.00
 4 10 11 1.87 0.00
 4 10 12 1.79 0.00
 4 10 13 -0.72 0.00
 -4 -11 7 -0.01 0.00
 -4 -11 6 0.55 0.00
 -4 -11 5 0.50 0.00
 -4 -11 4 -0.63 0.00
 -4 -11 3 -1.11 0.00
 -4 -11 2 -0.50 0.00
 -4 -11 1 -1.07 0.00
 4 11 0 -2.36 0.00
 4 11 1 -2.32 0.00
 4 11 2 -1.37 0.00
 4 11 3 -0.11 0.00
 4 11 4 0.22 0.00
 4 11 5 -0.64 0.00
 4 11 6 -0.51 0.00
 4 11 7 0.25 0.00
 4 11 8 0.96 0.00
 4 11 9 0.59 0.00
 4 11 10 -0.84 0.00
 4 11 11 0.75 0.00
 4 11 12 2.39 0.00
 -4 -12 6 0.90 0.00
 -4 -12 5 0.08 0.00
 -4 -12 4 -0.98 0.00
 -4 -12 3 -0.49 0.00
 -4 -12 2 0.29 0.00
 -4 -12 1 -1.10 0.00
 4 12 0 -3.03 0.00
 4 12 1 -3.03 0.00
 4 12 2 -2.64 0.00
 4 12 3 -1.34 0.00
 4 12 4 1.52 0.00
 4 12 5 1.65 0.00
 4 12 6 0.02 0.00
 4 12 7 0.73 0.00
 4 12 8 1.90 0.00
 4 12 9 0.79 0.00
 4 12 10 -1.04 0.00
 4 12 11 0.32 0.00
 -4 -13 4 -1.41 0.00
 -4 -13 3 -1.08 0.00
 -4 -13 2 0.67 0.00
 -4 -13 1 -0.10 0.00
 4 13 0 -2.25 0.00
 4 13 1 -2.55 0.00
 4 13 2 -2.62 0.00
 4 13 3 -2.73 0.00
 4 13 4 0.12 0.00
 4 13 5 2.34 0.00
 4 13 6 1.38 0.00
 4 13 7 1.62 0.00
 4 13 8 2.34 0.00
 4 13 9 0.66 0.00
 -4 -14 1 0.02 0.00
 4 14 0 -1.21 0.00
 4 14 1 -1.79 0.00
 4 14 2 -1.65 0.00
 4 14 3 -1.88 0.00
 4 14 4 -1.04 0.00
 4 14 5 0.59 0.00
 4 14 6 1.13 0.00
 -5 13 0 1.12 0.00
 5 -13 1 2.64 0.00
 5 -13 2 2.06 0.00
 5 -13 3 1.80 0.00
 5 -13 4 2.25 0.00
 -5 12 0 0.37 0.00
 5 -12 1 2.02 0.00
 5 -12 2 1.07 0.00
 5 -12 3 0.28 0.00
 5 -12 4 2.39 0.00
 5 -12 5 3.97 0.00
 5 -12 6 2.46 0.00
 5 -12 7 0.33 0.00
 -5 11 1 -0.51 0.00
 -5 11 0 -0.62 0.00
 5 -11 1 1.28 0.00
 5 -11 2 0.98 0.00
 5 -11 3 -0.92 0.00
 5 -11 4 0.08 0.00
 5 -11 5 3.53 0.00
 5 -11 6 4.86 0.00
 5 -11 7 2.89 0.00
 5 -11 8 0.68 0.00
 5 -11 9 0.22 0.00
 -5 10 1 0.30 0.00
 -5 10 0 -0.88 0.00
 5 -10 1 0.57 0.00
 5 -10 2 0.48 0.00
 5 -10 3 -1.30 0.00
 5 -10 4 -1.28 0.00
 5 -10 5 1.23 0.00
 5 -10 6 3.81 0.00
 5 -10 7 4.05 0.00
 5 -10 8 2.25 0.00
 5 -10 9 0.50 0.00
 5 -10 10 -0.59 0.00
 -5 9 1 0.88 0.00
 -5 9 0 -0.81 0.00
 5 -9 1 0.18 0.00
 5 -9 2 0.12 0.00
 5 -9 3 -1.49 0.00
 5 -9 4 -1.86 0.00
 5 -9 5 -0.66 0.00
 5 -9 6 1.55 0.00
 5 -9 7 3.09 0.00
 5 -9 8 2.21 0.00
 5 -9 9 0.44 0.00
 5 -9 10 -0.54 0.00
 5 -9 11 -2.07 0.00
 5 -9 12 -3.36 0.00
 -5 8 1 1.40 0.00
 -5 8 0 0.08 0.00
 5 -8 1 -0.23 0.00
 5 -8 2 -0.54 0.00
 5 -8 3 -1.05 0.00
 5 -8 4 -1.37 0.00
 5 -8 5 -1.81 0.00
 5 -8 6 -0.80 0.00
 5 -8 7 1.50 0.00
 5 -8 8 1.94 0.00
 5 -8 9 0.06 0.00
 5 -8 10 -1.27 0.00
 5 -8 11 -1.87 0.00
 5 -8 12 -3.45 0.00
 5 -8 13 -3.19 0.00
 -5 7 2 -0.08 0.00
 -5 7 1 0.89 0.00
 -5 7 0 0.95 0.00
 5 -7 1 0.16 0.00
 5 -7 2 -1.02 0.00
 5 -7 3 -1.03 0.00
 5 -7 4 -0.75 0.00
 5 -7 5 -1.48 0.00
 5 -7 6 -1.25 0.00
 5 -7 7 -0.21 0.00
 5 -7 8 0.52 0.00
 5 -7 9 0.85 0.00
 5 -7 10 -0.48 0.00
 5 -7 11 -2.00 0.00
 5 -7 12 -2.63 0.00
 5 -7 13 -2.72 0.00
 -5 6 2 -0.74 0.00
 -5 6 1 0.53 0.00
 -5 6 0 0.91 0.00
 5 -6 1 0.12 0.00
 5 -6 2 -0.69 0.00
 5 -6 3 -0.35 0.00
 5 -6 4 -0.68 0.00
 5 -6 5 -2.01 0.00
 5 -6 6 -0.30 0.00
 5 -6 7 1.23 0.00
 5 -6 8 -0.84 0.00
 5 -6 9 -0.45 0.00
 5 -6 10 1.43 0.00
 5 -6 11 0.21 0.00
 5 -6 12 -1.21 0.00
 5 -6 13 -1.62 0.00
 5 -6 14 -0.67 0.00
 -5 5 2 -1.17 0.00
 -5 5 1 0.67 0.00
 -5 5 0 1.48 0.00
 5 -5 1 0.19 0.00
 5 -5 2 -0.84 0.00
 5 -5 3 0.28 0.00
 5 -5 4 0.60 0.00
 5 -5 5 -2.18 0.00
 5 -5 6 -1.60 0.00
 5 -5 7 2.69 0.00
 5 -5 8 1.52 0.00
 5 -5 9 -1.42 0.00
 5 -5 10 0.36 0.00
 5 -5 11 2.14 0.00
 5 -5 12 1.91 0.00
 5 -5 13 0.41 0.00
 5 -5 14 -0.62 0.00
 5 -5 15 1.17 0.00
 -5 4 2 -2.33 0.00
 -5 4 1 -0.34 0.00
 -5 4 0 1.31 0.00
 5 -4 1 1.28 0.00
 5 -4 2 -0.13 0.00
 5 -4 3 -0.30 0.00
 5 -4 4 0.99 0.00
 5 -4 5 -0.12 0.00
 5 -4 6 -1.96 0.00
 5 -4 7 0.63 0.00
 5 -4 8 2.62 0.00
 5 -4 9 0.48 0.00
 5 -4 10 -0.38 0.00
 5 -4 11 1.14 0.00
 5 -4 12 3.09 0.00
 5 -4 13 2.95 0.00
 5 -4 14 0.28 0.00
 5 -4 15 0.16 0.00
 -5 3 1 -2.00 0.00
 -5 3 0 -0.39 0.00
 5 -3 1 1.08 0.00
 5 -3 2 1.00 0.00
 5 -3 3 -0.18 0.00
 5 -3 4 -0.15 0.00
 5 -3 5 0.53 0.00
 5 -3 6 -0.19 0.00
 5 -3 7 -0.22 0.00
 5 -3 8 0.78 0.00
 5 -3 9 0.32 0.00
 5 -3 10 0.03 0.00
 5 -3 11 0.58 0.00
 5 -3 12 1.82 0.00
 5 -3 13 3.20 0.00
 5 -3 14 1.52 0.00
 5 -3 15 -0.55 0.00
 -5 2 3 -2.91 0.00
 -5 2 1 -3.70 0.00
 -5 2 0 -2.24 0.00
 5 -2 1 -0.21 0.00
 5 -2 2 0.77 0.00
 5 -2 3 0.11 0.00
 5 -2 4 -0.78 0.00
 5 -2 5 -0.57 0.00
 5 -2 6 -0.14 0.00
 5 -2 7 0.24 0.00
 5 -2 8 0.50 0.00
 5 -2 9 -0.84 0.00
 5 -2 10 -1.38 0.00
 5 -2 11 -0.11 0.00
 5 -2 12 0.68 0.00
 5 -2 13 2.05 0.00
 5 -2 14 1.98 0.00
 5 -2 15 -0.76 0.00
 5 -2 16 -1.60 0.00
 -5 1 3 -1.19 0.00
 -5 1 2 -3.13 0.00
 -5 1 1 -4.46 0.00
 -5 1 0 -4.12 0.00
 5 -1 1 -2.08 0.00
 5 -1 2 -0.06 0.00
 5 -1 3 0.39 0.00
 5 -1 4 -0.85 0.00
 5 -1 5 -1.56 0.00
 5 -1 6 -1.05 0.00
 5 -1 7 -0.61 0.00
 5 -1 8 0.27 0.00
 5 -1 9 -0.03 0.00
 5 -1 10 -1.58 0.00
 5 -1 11 -1.49 0.00
 5 -1 12 -0.93 0.00
 5 -1 13 0.54 0.00
 5 -1 14 2.15 0.00
 5 -1 15 -0.22 0.00
 5 -1 16 -2.54 0.00
 -5 0 3 -1.16 0.00
 -5 0 2 -2.30 0.00
 -5 0 1 -3.88 0.00
 5 0 0 -4.77 0.00
 5 0 1 -4.20 0.00
 5 0 2 -1.92 0.00
 5 0 3 0.61 0.00
 5 0 4 0.19 0.00
 5 0 5 -1.82 0.00
 5 0 6 -1.46 0.00
 5 0 7 -0.85 0.00
 5 0 8 -0.88 0.00
 5 0 9 0.01 0.00
 5 0 10 -0.05 0.00
 5 0 11 -0.82 0.00
 5 0 12 -1.51 0.00
 5 0 13 -1.20 0.00
 5 0 14 1.07 0.00
 5 0 15 0.73 0.00
 5 0 16 -2.05 0.00
 -5 -1 4 0.43 0.00
 -5 -1 3 -0.72 0.00
 -5 -1 2 -2.23 0.00
 -5 -1 1 -3.57 0.00
 5 1 0 -4.34 0.00
 5 1 1 -4.64 0.00
 5 1 2 -3.39 0.00
 5 1 3 -0.33 0.00
 5 1 4 1.21 0.00
 5 1 5 -0.77 0.00
 5 1 6 -1.53 0.00
 5 1 7 -0.17 0.00
 5 1 8 -0.42 0.00
 5 1 9 -0.51 0.00
 5 1 10 0.29 0.00
 5 1 11 0.27 0.00
 5 1 12 -0.18 0.00
 5 1 13 -0.84 0.00
 5 1 14 -0.54 0.00
 5 1 15 0.07 0.00
 5 1 16 -0.87 0.00
 -5 -2 4 1.07 0.00
 -5 -2 3 0.40 0.00
 -5 -2 2 -1.41 0.00
 -5 -2 1 -3.41 0.00
 5 2 1 -4.28 0.00
 5 2 2 -3.27 0.00
 5 2 3 -0.87 0.00
 5 2 4 1.38 0.00
 5 2 5 0.62 0.00
 5 2 6 -1.28 0.00
 5 2 7 -0.15 0.00
 5 2 8 0.89 0.00
 5 2 9 0.05 0.00
 5 2 10 0.09 0.00
 5 2 11 0.29 0.00
 5 2 12 0.17 0.00
 5 2 13 0.36 0.00
 5 2 14 -0.26 0.00
 5 2 15 -1.13 0.00
 5 2 16 -1.05 0.00
 -5 -3 5 2.08 0.00
 -5 -3 4 1.20 0.00
 -5 -3 3 1.18 0.00
 -5 -3 2 0.02 0.00
 -5 -3 1 -2.69 0.00
 5 3 0 -3.66 0.00
 5 3 1 -3.71 0.00
 5 3 2 -3.24 0.00
 5 3 3 -1.43 0.00
 5 3 4 1.11 0.00
 5 3 5 1.71 0.00
 5 3 6 -0.56 0.00
 5 3 7 -0.72 0.00
 5 3 8 1.15 0.00
 5 3 9 0.41 0.00
 5 3 10 -0.32 0.00
 5 3 11 0.39 0.00
 5 3 12 -0.10 0.00
 5 3 13 -0.37 0.00
 5 3 14 0.00 0.00
 5 3 15 -0.93 0.00
 5 3 16 -1.63 0.00
 -5 -4 5 1.58 0.00
 -5 -4 4 1.06 0.00
 -5 -4 3 1.14 0.00
 -5 -4 2 0.95 0.00
 -5 -4 1 -1.64 0.00
 5 4 0 -2.93 0.00
 5 4 1 -2.70 0.00
 5 4 2 -2.82 0.00
 5 4 3 -2.30 0.00
 5 4 4 -0.78 0.00
 5 4 5 0.54 0.00
 5 4 6 -0.01 0.00
 5 4 7 -0.44 0.00
 5 4 8 0.75 0.00
 5 4 9 0.07 0.00
 5 4 10 -1.36 0.00
 5 4 11 -0.21 0.00
 5 4 12 0.24 0.00
 5 4 13 -1.03 0.00
 5 4 14 -1.13 0.00
 5 4 15 -1.05 0.00
 5 4 16 -1.47 0.00
 -5 -5 5 1.10 0.00
 -5 -5 4 1.32 0.00
 -5 -5 3 1.38 0.00
 -5 -5 2 0.79 0.00
 -5 -5 1 -1.07 0.00
 5 5 0 -1.97 0.00
 5 5 1 -2.21 0.00
 5 5 2 -2.60 0.00
 5 5 3 -1.69 0.00
 5 5 4 -1.68 0.00
 5 5 5 -3.12 0.00
 5 5 6 -2.45 0.00
 5 5 7 -0.21 0.00
 5 5 8 0.68 0.00
 5 5 9 -0.23 0.00
 5 5 10 -1.48 0.00
 5 5 11 -1.09 0.00
 5 5 12 0.01 0.00
 5 5 13 -0.33 0.00
 5 5 14 -1.14 0.00
 5 5 15 -1.65 0.00
 -5 -6 6 0.68 0.00
 -5 -6 5 -0.08 0.00
 -5 -6 4 0.60 0.00
 -5 -6 3 2.20 0.00
 -5 -6 2 1.17 0.00
 -5 -6 1 -1.19 0.00
 5 6 0 -1.25 0.00
 5 6 1 -1.73 0.00
 5 6 2 -3.50 0.00
 5 6 3 -1.61 0.00
 5 6 4 -0.05 0.00
 5 6 5 -4.19 0.00
 5 6 6 -6.00 0.00
 5 6 7 -2.04 0.00
 5 6 8 0.01 0.00
 5 6 9 -0.62 0.00
 5 6 10 -0.64 0.00
 5 6 11 -0.70 0.00
 5 6 12 -0.10 0.00
 5 6 13 0.85 0.00
 5 6 14 0.40 0.00
 5 6 15 -0.91 0.00
 -5 -7 6 1.32 0.00
 -5 -7 5 -0.46 0.00
 -5 -7 4 -1.06 0.00
 -5 -7 3 1.36 0.00
 -5 -7 2 1.81 0.00
 -5 -7 1 -0.53 0.00
 5 7 0 -1.09 0.00
 5 7 1 -1.38 0.00
 5 7 2 -3.69 0.00
 5 7 3 -2.72 0.00
 5 7 4 0.40 0.00
 5 7 5 -2.28 0.00
 5 7 6 -5.90 0.00
 5 7 7 -3.46 0.00
 5 7 8 -1.19 0.00
 5 7 9 -1.20 0.00
 5 7 10 -0.16 0.00
 5 7 11 -0.38 0.00
 5 7 12 -0.05 0.00
 5 7 13 2.50 0.00
 5 7 14 2.59 0.00
 5 7 15 0.61 0.00
 -5 -8 6 2.32 0.00
 -5 -8 5 0.34 0.00
 -5 -8 4 -1.08 0.00
 -5 -8 3 0.26 0.00
 -5 -8 2 1.15 0.00
 -5 -8 1 0.21 0.00
 5 8 0 -0.60 0.00
 5 8 1 -1.56 0.00
 5 8 2 -3.27 0.00
 5 8 3 -2.97 0.00
 5 8 4 -0.52 0.00
 5 8 5 -1.01 0.00
 5 8 6 -3.66 0.00
 5 8 7 -2.88 0.00
 5 8 8 -1.15 0.00
 5 8 9 -0.78 0.00
 5 8 10 0.41 0.00
 5 8 11 -0.54 0.00
 5 8 12 -1.39 0.00
 5 8 13 2.48 0.00
 5 8 14 4.50 0.00
 -5 -9 6 2.62 0.00
 -5 -9 5 0.77 0.00
 -5 -9 4 -0.72 0.00
 -5 -9 3 0.49 0.00
 -5 -9 2 1.06 0.00
 -5 -9 1 0.27 0.00
 5 9 0 -0.32 0.00
 5 9 1 -1.46 0.00
 5 9 2 -2.80 0.00
 5 9 3 -2.80 0.00
 5 9 4 -1.36 0.00
 5 9 5 -0.30 0.00
 5 9 6 -1.57 0.00
 5 9 7 -2.41 0.00
 5 9 8 -0.88 0.00
 5 9 9 0.46 0.00
 5 9 10 1.41 0.00
 5 9 11 0.31 0.00
 5 9 12 -2.23 0.00
 5 9 13 -0.05 0.00
 -5 -10 6 1.96 0.00
 -5 -10 5 1.09 0.00
 -5 -10 4 -0.69 0.00
 -5 -10 3 0.18 0.00
 -5 -10 2 1.43 0.00
 -5 -10 1 0.61 0.00
 5 10 0 -0.55 0.00
 5 10 1 -1.39 0.00
 5 10 2 -1.91 0.00
 5 10 3 -2.10 0.00
 5 10 4 -2.10 0.00
 5 10 5 -0.53 0.00
 5 10 7 -1.61 0.00
 5 10 8 -1.50 0.00
 5 10 9 0.42 0.00
 5 10 10 1.47 0.00
 5 10 11 1.37 0.00
 5 10 12 -0.97 0.00
 5 10 13 -1.75 0.00
 -5 -11 6 1.16 0.00
 -5 -11 5 0.87 0.00
 -5 -11 4 -0.20 0.00
 -5 -11 3 0.09 0.00
 -5 -11 2 1.26 0.00
 -5 -11 1 0.64 0.00
 5 11 0 -0.95 0.00
 5 11 1 -1.86 0.00
 5 11 2 -1.83 0.00
 5 11 3 -0.88 0.00
 5 11 4 -1.03 0.00
 5 11 5 -1.35 0.00
 5 11 6 -0.09 0.00
 5 11 7 -0.23 0.00
 5 11 8 -1.11 0.00
 5 11 9 -0.80 0.00
 5 11 10 -0.05 0.00
 5 11 11 1.35 0.00
 -5 -12 5 0.69 0.00
 -5 -12 4 -0.39 0.00
 -5 -12 3 0.18 0.00
 -5 -12 2 1.62 0.00
 -5 -12 1 0.88 0.00
 5 12 0 -1.12 0.00
 5 12 1 -2.25 0.00
 5 12 2 -2.95 0.00
 5 12 3 -1.48 0.00
 5 12 4 0.92 0.00
 5 12 5 -0.10 0.00
 5 12 6 -1.43 0.00
 5 12 7 -0.26 0.00
 5 12 8 0.27 0.00
 5 12 9 -1.15 0.00
 5 12 10 -1.89 0.00
 -5 -13 2 1.13 0.00
 -5 -13 1 1.40 0.00
 5 13 0 -0.26 0.00
 5 13 1 -1.50 0.00
 5 13 2 -3.07 0.00
 5 13 3 -3.22 0.00
 5 13 4 0.30 0.00
 5 13 5 1.48 0.00
 5 13 6 -0.91 0.00
 5 13 7 -0.72 0.00
 5 13 8 0.75 0.00
 5 14 2 -1.47 0.00
 5 14 3 -2.75 0.00
 5 14 4 -1.23 0.00
 6 -12 1 2.66 0.00
 6 -12 2 2.05 0.00
 6 -12 3 1.81 0.00
 6 -12 4 2.50 0.00
 6 -12 5 1.23 0.00
 6 -12 6 -1.71 0.00
 6 -11 1 1.58 0.00
 6 -11 2 1.46 0.00
 6 -11 3 0.84 0.00
 6 -11 4 1.68 0.00
 6 -11 5 2.42 0.00
 6 -11 6 1.05 0.00
 6 -11 7 -0.59 0.00
 6 -11 8 0.07 0.00
 6 -10 1 0.70 0.00
 6 -10 2 0.30 0.00
 6 -10 3 -0.89 0.00
 6 -10 4 0.09 0.00
 6 -10 5 1.73 0.00
 6 -10 6 2.16 0.00
 6 -10 7 1.53 0.00
 6 -10 8 1.11 0.00
 6 -10 9 1.27 0.00
 6 -10 10 1.31 0.00
 -6 9 0 -1.51 0.00
 6 -9 1 0.69 0.00
 6 -9 2 0.13 0.00
 6 -9 3 -2.33 0.00
 6 -9 4 -1.91 0.00
 6 -9 5 0.40 0.00
 6 -9 6 2.22 0.00
 6 -9 7 2.86 0.00
 6 -9 8 2.07 0.00
 6 -9 9 1.11 0.00
 6 -9 10 1.13 0.00
 6 -9 11 0.61 0.00
 -6 8 0 -0.90 0.00
 6 -8 1 0.74 0.00
 6 -8 2 0.51 0.00
 6 -8 3 -1.80 0.00
 6 -8 4 -2.51 0.00
 6 -8 5 -1.18 0.00
 6 -8 6 1.46 0.00
 6 -8 7 3.91 0.00
 6 -8 8 3.62 0.00
 6 -8 9 1.01 0.00
 6 -8 10 0.01 0.00
 6 -8 11 0.50 0.00
 6 -8 12 -0.58 0.00
 -6 7 0 -0.04 0.00
 6 -7 1 1.02 0.00
 6 -7 2 0.71 0.00
 6 -7 3 -0.85 0.00
 6 -7 4 -1.51 0.00
 6 -7 5 -1.05 0.00
 6 -7 6 1.20 0.00
 6 -7 7 3.63 0.00
 6 -7 8 4.31 0.00
 6 -7 9 2.83 0.00
 6 -7 10 0.17 0.00
 6 -7 11 -0.70 0.00
 6 -7 12 -0.65 0.00
 6 -7 13 -0.89 0.00
 -6 6 1 1.15 0.00
 -6 6 0 0.47 0.00
 6 -6 1 0.90 0.00
 6 -6 2 1.07 0.00
 6 -6 3 0.30 0.00
 6 -6 4 -0.89 0.00
 6 -6 5 -1.03 0.00
 6 -6 6 2.45 0.00
 6 -6 7 4.68 0.00
 6 -6 8 2.97 0.00
 6 -6 9 2.80 0.00
 6 -6 10 2.61 0.00
 6 -6 11 0.27 0.00
 6 -6 12 -0.91 0.00
 6 -6 13 -1.05 0.00
 6 -6 14 -0.29 0.00
 -6 5 1 -0.05 0.00
 -6 5 0 0.71 0.00
 6 -5 1 0.58 0.00
 6 -5 2 0.69 0.00
 6 -5 3 1.40 0.00
 6 -5 4 0.49 0.00
 6 -5 5 -1.81 0.00
 6 -5 6 1.35 0.00
 6 -5 7 6.24 0.00
 6 -5 8 3.68 0.00
 6 -5 9 0.81 0.00
 6 -5 10 2.36 0.00
 6 -5 11 2.43 0.00
 6 -5 12 1.13 0.00
 6 -5 13 -0.42 0.00
 6 -5 14 -1.36 0.00
 -6 4 1 -1.27 0.00
 -6 4 0 -0.13 0.00
 6 -4 1 0.56 0.00
 6 -4 2 0.43 0.00
 6 -4 3 1.12 0.00
 6 -4 4 1.79 0.00
 6 -4 5 -0.53 0.00
 6 -4 6 -0.76 0.00
 6 -4 7 3.82 0.00
 6 -4 8 4.19 0.00
 6 -4 9 0.86 0.00
 6 -4 10 0.83 0.00
 6 -4 11 1.97 0.00
 6 -4 12 2.83 0.00
 6 -4 13 2.01 0.00
 6 -4 14 -1.13 0.00
 6 -4 15 -1.62 0.00
 -6 3 1 -1.10 0.00
 -6 3 0 -0.89 0.00
 6 -3 1 -0.32 0.00
 6 -3 2 0.44 0.00
 6 -3 3 0.73 0.00
 6 -3 4 1.37 0.00
 6 -3 5 0.99 0.00
 6 -3 6 -0.27 0.00
 6 -3 7 0.97 0.00
 6 -3 8 1.57 0.00
 6 -3 10 0.30 0.00
 6 -3 11 1.46 0.00
 6 -3 12 2.56 0.00
 6 -3 13 3.45 0.00
 6 -3 14 0.76 0.00
 6 -3 15 -2.07 0.00
 -6 2 1 -1.48 0.00
 -6 2 0 -0.33 0.00
 6 -2 1 -0.66 0.00
 6 -2 2 -0.18 0.00
 6 -2 3 0.49 0.00
 6 -2 4 0.52 0.00
 6 -2 5 0.78 0.00
 6 -2 6 0.41 0.00
 6 -2 7 0.48 0.00
 6 -2 8 0.28 0.00
 6 -2 9 -2.07 0.00
 6 -2 10 -1.97 0.00
 6 -2 11 0.85 0.00
 6 -2 12 2.54 0.00
 6 -2 13 3.91 0.00
 6 -2 14 2.76 0.00
 6 -2 15 -1.10 0.00
 -6 1 2 -2.02 0.00
 -6 1 1 -2.45 0.00
 -6 1 0 -0.72 0.00
 6 -1 1 -0.15 0.00
 6 -1 2 -0.01 0.00
 6 -1 3 0.45 0.00
 6 -1 4 -0.14 0.00
 6 -1 5 -0.03 0.00
 6 -1 6 0.19 0.00
 6 -1 7 -0.22 0.00
 6 -1 8 0.38 0.00
 6 -1 9 -1.05 0.00
 6 -1 10 -3.23 0.00
 6 -1 11 -1.48 0.00
 6 -1 12 1.40 0.00
 6 -1 13 3.96 0.00
 6 -1 14 4.86 0.00
 6 -1 15 1.12 0.00
 6 -1 16 -2.20 0.00
 -6 0 2 -0.50 0.00
 -6 0 1 -1.75 0.00
 6 0 0 -1.66 0.00
 6 0 1 -0.82 0.00
 6 0 2 0.33 0.00
 6 0 3 1.25 0.00
 6 0 4 -0.04 0.00
 6 0 5 -0.73 0.00
 6 0 6 0.38 0.00
 6 0 7 -0.50 0.00
 6 0 8 -0.77 0.00
 6 0 9 0.29 0.00
 6 0 10 -1.13 0.00
 6 0 11 -2.00 0.00
 6 0 12 -0.45 0.00
 6 0 13 2.29 0.00
 6 0 14 5.17 0.00
 6 0 15 3.75 0.00
 6 0 16 -0.36 0.00
 -6 -1 3 0.23 0.00
 -6 -1 2 -0.75 0.00
 -6 -1 1 -0.88 0.00
 6 1 0 -1.25 0.00
 6 1 1 -1.38 0.00
 6 1 2 -0.09 0.00
 6 1 3 1.58 0.00
 6 1 4 0.62 0.00
 6 1 5 -1.04 0.00
 6 1 6 0.51 0.00
 6 1 7 0.98 0.00
 6 1 8 -0.93 0.00
 6 1 9 -0.36 0.00
 6 1 10 0.40 0.00
 6 1 11 -0.68 0.00
 6 1 12 -0.50 0.00
 6 1 13 1.22 0.00
 6 1 14 3.20 0.00
 6 1 15 3.59 0.00
 6 1 16 1.76 0.00
 -6 -2 3 0.70 0.00
 -6 -2 2 -1.08 0.00
 -6 -2 1 -1.56 0.00
 6 2 0 -0.99 0.00
 6 2 1 -0.74 0.00
 6 2 2 0.07 0.00
 6 2 3 1.30 0.00
 6 2 4 0.99 0.00
 6 2 5 -0.97 0.00
 6 2 6 -0.43 0.00
 6 2 7 2.03 0.00
 6 2 8 1.06 0.00
 6 2 9 -0.64 0.00
 6 2 10 0.07 0.00
 6 2 11 -0.27 0.00
 6 2 12 -0.74 0.00
 6 2 13 1.17 0.00
 6 2 14 2.36 0.00
 6 2 15 1.43 0.00
 6 2 16 1.15 0.00
 -6 -3 3 1.17 0.00
 -6 -3 2 0.15 0.00
 -6 -3 1 -1.99 0.00
 6 3 0 -1.94 0.00
 6 3 1 -0.56 0.00
 6 3 2 0.49 0.00
 6 3 3 0.83 0.00
 6 3 4 0.75 0.00
 6 3 5 -0.56 0.00
 6 3 6 -1.53 0.00
 6 3 7 1.06 0.00
 6 3 8 2.50 0.00
 6 3 9 -0.07 0.00
 6 3 10 -0.79 0.00
 6 3 11 -0.24 0.00
 6 3 12 -1.68 0.00
 6 3 13 -0.83 0.00
 6 3 14 1.68 0.00
 6 3 15 0.78 0.00
 6 3 16 -0.60 0.00
 -6 -4 4 0.17 0.00
 -6 -4 3 0.57 0.00
 -6 -4 2 1.35 0.00
 -6 -4 1 -0.57 0.00
 6 4 0 -2.09 0.00
 6 4 1 -1.41 0.00
 6 4 2 -0.13 0.00
 6 4 3 -0.03 0.00
 6 4 4 -0.80 0.00
 6 4 5 -1.59 0.00
 6 4 6 -2.09 0.00
 6 4 7 -0.02 0.00
 6 4 8 2.31 0.00
 6 4 9 0.07 0.00
 6 4 10 -1.96 0.00
 6 4 11 -0.59 0.00
 6 4 12 -1.45 0.00
 6 4 13 -3.08 0.00
 6 4 14 -1.18 0.00
 6 4 15 0.05 0.00
 -6 -5 4 0.87 0.00
 -6 -5 3 0.14 0.00
 -6 -5 2 0.70 0.00
 -6 -5 1 0.50 0.00
 6 5 0 -0.32 0.00
 6 5 1 -1.47 0.00
 6 5 2 -1.75 0.00
 6 5 3 -0.91 0.00
 6 5 4 -2.26 0.00
 6 5 5 -5.06 0.00
 6 5 6 -4.57 0.00
 6 5 7 -0.64 0.00
 6 5 8 1.90 0.00
 6 5 9 0.04 0.00
 6 5 10 -2.32 0.00
 6 5 11 -1.34 0.00
 6 5 12 -0.92 0.00
 6 5 14 -3.40 0.00
 6 5 15 -2.09 0.00
 -6 -6 4 1.28 0.00
 -6 -6 3 1.07 0.00
 -6 -6 2 0.37 0.00
 -6 -6 1 -0.06 0.00
 6 6 0 0.87 0.00
 6 6 1 -0.17 0.00
 6 6 2 -2.68 0.00
 6 6 3 -1.67 0.00
 6 6 4 -1.90 0.00
 6 6 5 -7.33 0.00
 6 6 6 -8.61 0.00
 6 6 7 -2.82 0.00
 6 6 8 0.89 0.00
 6 6 9 -0.06 0.00
 6 6 10 -1.31 0.00
 6 6 11 -0.97 0.00
 6 6 12 -0.27 0.00
 6 6 13 -1.27 0.00
 6 6 14 -2.98 0.00
 6 6 15 -3.30 0.00
 -6 -7 5 0.08 0.00
 -6 -7 4 0.16 0.00
 -6 -7 3 0.97 0.00
 -6 -7 2 0.86 0.00
 -6 -7 1 0.08 0.00
 6 7 0 0.90 0.00
 6 7 1 0.50 0.00
 6 7 2 -2.33 0.00
 6 7 3 -1.70 0.00
 6 7 4 -0.54 0.00
 6 7 5 -6.17 0.00
 6 7 6 -9.97 0.00
 6 7 7 -5.19 0.00
 6 7 8 -1.17 0.00
 6 7 9 -0.93 0.00
 6 7 10 -0.41 0.00
 6 7 11 -0.33 0.00
 6 7 12 0.51 0.00
 6 7 13 1.59 0.00
 6 7 14 -0.38 0.00
 -6 -8 5 0.05 0.00
 -6 -8 4 -0.40 0.00
 -6 -8 3 0.21 0.00
 -6 -8 2 0.26 0.00
 -6 -8 1 0.27 0.00
 6 8 0 1.18 0.00
 6 8 1 0.56 0.00
 6 8 2 -1.89 0.00
 6 8 3 -1.26 0.00
 6 8 4 0.87 0.00
 6 8 5 -3.02 0.00
 6 8 6 -7.84 0.00
 6 8 7 -5.42 0.00
 6 8 8 -2.19 0.00
 6 8 9 -1.65 0.00
 6 8 10 -0.30 0.00
 6 8 11 -0.74 0.00
 6 8 12 -0.55 0.00
 6 8 13 3.09 0.00
 6 8 14 3.13 0.00
 -6 -9 5 0.93 0.00
 -6 -9 4 -0.22 0.00
 -6 -9 3 0.64 0.00
 -6 -9 2 0.46 0.00
 -6 -9 1 -0.08 0.00
 6 9 0 0.79 0.00
 6 9 1 0.59 0.00
 6 9 2 -1.32 0.00
 6 9 3 -1.29 0.00
 6 9 4 1.00 0.00
 6 9 5 0.20 0.00
 6 9 6 -3.94 0.00
 6 9 7 -4.49 0.00
 6 9 8 -1.98 0.00
 6 9 9 -0.87 0.00
 6 9 10 -0.09 0.00
 6 9 11 -1.25 0.00
 6 9 12 -2.65 0.00
 6 9 13 1.00 0.00
 -6 -10 5 2.09 0.00
 -6 -10 4 0.26 0.00
 -6 -10 3 0.77 0.00
 -6 -10 2 1.46 0.00
 -6 -10 1 0.74 0.00
 6 10 0 0.43 0.00
 6 10 1 0.13 0.00
 6 10 2 -0.69 0.00
 6 10 3 -1.11 0.00
 6 10 4 -0.46 0.00
 6 10 5 0.86 0.00
 6 10 6 -0.28 0.00
 6 10 7 -2.85 0.00
 6 10 8 -2.12 0.00
 6 10 9 0.01 0.00
 6 10 10 0.54 0.00
 6 10 11 -1.03 0.00
 6 10 12 -3.38 0.00
 -6 -11 5 2.13 0.00
 -6 -11 4 1.08 0.00
 -6 -11 3 0.95 0.00
 -6 -11 2 1.65 0.00
 -6 -11 1 1.31 0.00
 6 11 0 0.65 0.00
 6 11 1 -0.08 0.00
 6 11 2 -0.60 0.00
 6 11 3 -0.34 0.00
 6 11 4 -0.98 0.00
 6 11 5 -1.04 0.00
 6 11 6 0.07 0.00
 6 11 7 -0.91 0.00
 6 11 8 -1.72 0.00
 6 11 9 -0.43 0.00
 6 11 10 0.41 0.00
 6 11 11 -0.22 0.00
 -6 -12 3 1.02 0.00
 -6 -12 2 2.01 0.00
 -6 -12 1 1.58 0.00
 6 12 0 0.46 0.00
 6 12 1 -0.29 0.00
 6 12 2 -1.14 0.00
 6 12 3 -0.29 0.00
 6 12 4 0.35 0.00
 6 12 5 -1.56 0.00
 6 12 6 -2.17 0.00
 6 12 7 -0.94 0.00
 6 12 8 -0.39 0.00
 6 12 9 -0.63 0.00
 6 13 0 1.06 0.00
 6 13 1 -0.15 0.00
 6 13 2 -1.64 0.00
 6 13 3 -1.47 0.00
 6 13 4 0.81 0.00
 6 13 5 0.03 0.00
 6 13 6 -2.59 0.00
 7 -11 2 2.39 0.00
 7 -11 3 1.40 0.00
 7 -11 4 0.35 0.00
 7 -11 5 -1.00 0.00
 7 -11 6 -2.40 0.00
 7 -10 2 1.49 0.00
 7 -10 3 0.30 0.00
 7 -10 4 0.05 0.00
 7 -10 5 -0.34 0.00
 7 -10 6 -1.32 0.00
 7 -10 7 -1.14 0.00
 7 -10 8 0.93 0.00
 7 -9 2 0.65 0.00
 7 -9 3 -1.44 0.00
 7 -9 4 -1.40 0.00
 7 -9 5 -0.08 0.00
 7 -9 6 0.10 0.00
 7 -9 7 -0.14 0.00
 7 -9 8 0.68 0.00
 7 -9 9 1.96 0.00
 7 -9 10 2.51 0.00
 7 -8 1 0.81 0.00
 7 -8 2 0.57 0.00
 7 -8 3 -1.78 0.00
 7 -8 4 -2.46 0.00
 7 -8 5 -1.02 0.00
 7 -8 6 0.79 0.00
 7 -8 7 1.62 0.00
 7 -8 8 1.22 0.00
 7 -8 9 0.52 0.00
 7 -8 10 1.26 0.00
 7 -8 11 2.12 0.00
 7 -7 1 1.37 0.00
 7 -7 2 1.06 0.00
 7 -7 3 -1.18 0.00
 7 -7 4 -1.98 0.00
 7 -7 5 -1.30 0.00
 7 -7 6 0.55 0.00
 7 -7 7 2.07 0.00
 7 -7 8 2.11 0.00
 7 -7 9 0.75 0.00
 7 -7 10 -0.51 0.00
 7 -7 11 0.07 0.00
 7 -7 12 0.33 0.00
 7 -6 1 1.05 0.00
 7 -6 2 1.49 0.00
 7 -6 3 -0.15 0.00
 7 -6 4 -1.38 0.00
 7 -6 5 -1.30 0.00
 7 -6 6 1.16 0.00
 7 -6 7 2.33 0.00
 7 -6 8 1.01 0.00
 7 -6 9 0.84 0.00
 7 -6 10 0.19 0.00
 7 -6 11 -1.43 0.00
 7 -6 12 -1.78 0.00
 7 -6 13 -1.59 0.00
 -7 5 0 -0.40 0.00
 7 -5 1 0.80 0.00
 7 -5 2 1.02 0.00
 7 -5 3 0.69 0.00
 7 -5 4 -0.33 0.00
 7 -5 5 -2.08 0.00
 7 -5 6 0.43 0.00
 7 -5 7 3.46 0.00
 7 -5 8 0.84 0.00
 7 -5 9 -0.69 0.00
 7 -5 10 0.35 0.00
 7 -5 11 -0.74 0.00
 7 -5 12 -2.04 0.00
 7 -5 13 -2.74 0.00
 7 -5 14 -2.78 0.00
 -7 4 0 -1.38 0.00
 7 -4 1 0.84 0.00
 7 -4 2 1.11 0.00
 7 -4 3 0.75 0.00
 7 -4 4 0.89 0.00
 7 -4 5 -1.45 0.00
 7 -4 6 -1.58 0.00
 7 -4 7 2.06 0.00
 7 -4 8 1.57 0.00
 7 -4 9 -0.45 0.00
 7 -4 10 -0.04 0.00
 7 -4 11 -0.70 0.00
 7 -4 12 -1.07 0.00
 7 -4 13 -1.48 0.00
 7 -4 14 -3.30 0.00
 -7 3 0 -1.76 0.00
 7 -3 1 -0.58 0.00
 7 -3 2 1.25 0.00
 7 -3 3 1.32 0.00
 7 -3 4 1.40 0.00
 7 -3 5 0.28 0.00
 7 -3 6 -1.35 0.00
 7 -3 7 -0.22 0.00
 7 -3 8 0.03 0.00
 7 -3 9 -0.39 0.00
 7 -3 10 1.00 0.00
 7 -3 11 0.27 0.00
 7 -3 12 -0.72 0.00
 7 -3 13 -0.10 0.00
 7 -3 14 -1.66 0.00
 -7 2 0 0.95 0.00
 7 -2 1 -0.85 0.00
 7 -2 2 -0.07 0.00
 7 -2 3 1.51 0.00
 7 -2 4 1.68 0.00
 7 -2 5 1.25 0.00
 7 -2 6 0.16 0.00
 7 -2 7 -0.05 0.00
 7 -2 8 -0.75 0.00
 7 -2 9 -2.17 0.00
 7 -2 10 -0.15 0.00
 7 -2 11 1.82 0.00
 7 -2 12 0.90 0.00
 7 -2 13 0.78 0.00
 7 -2 14 0.03 0.00
 7 -2 15 -1.80 0.00
 -7 1 1 0.10 0.00
 -7 1 0 2.58 0.00
 7 -1 1 1.29 0.00
 7 -1 2 -0.20 0.00
 7 -1 3 0.72 0.00
 7 -1 4 1.08 0.00
 7 -1 5 1.26 0.00
 7 -1 6 0.87 0.00
 7 -1 7 0.34 0.00
 7 -1 8 0.50 0.00
 7 -1 9 -1.60 0.00
 7 -1 10 -2.70 0.00
 7 -1 11 0.05 0.00
 7 -1 12 1.70 0.00
 7 -1 13 1.98 0.00
 7 -1 14 1.81 0.00
 7 -1 15 -0.38 0.00
 -7 0 1 0.14 0.00
 7 0 0 1.31 0.00
 7 0 1 1.60 0.00
 7 0 2 0.89 0.00
 7 0 3 0.79 0.00
 7 0 4 -0.04 0.00
 7 0 5 0.39 0.00
 7 0 6 1.24 0.00
 7 0 7 -0.15 0.00
 7 0 8 0.19 0.00
 7 0 9 0.55 0.00
 7 0 10 -2.16 0.00
 7 0 11 -2.46 0.00
 7 0 12 -0.21 0.00
 7 0 13 1.31 0.00
 7 0 14 2.49 0.00
 7 0 15 1.43 0.00
 7 1 0 0.68 0.00
 7 1 1 -0.08 0.00
 7 1 2 0.30 0.00
 7 1 3 0.83 0.00
 7 1 4 -0.65 0.00
 7 1 5 -0.84 0.00
 7 1 6 1.40 0.00
 7 1 7 0.44 0.00
 7 1 8 -1.13 0.00
 7 1 10 -0.34 0.00
 7 1 11 -2.48 0.00
 7 1 12 -1.58 0.00
 7 1 13 0.02 0.00
 7 1 14 0.80 0.00
 7 1 15 1.05 0.00
 -7 -2 2 0.75 0.00
 -7 -2 1 1.25 0.00
 7 2 0 1.15 0.00
 7 2 1 -0.24 0.00
 7 2 2 -0.65 0.00
 7 2 3 -0.36 0.00
 7 2 4 -1.28 0.00
 7 2 5 -1.72 0.00
 7 2 6 0.64 0.00
 7 2 7 1.72 0.00
 7 2 8 -0.37 0.00
 7 2 9 -0.68 0.00
 7 2 10 -0.05 0.00
 7 2 11 -1.67 0.00
 7 2 12 -1.82 0.00
 7 2 13 0.37 0.00
 7 2 14 0.36 0.00
 7 2 15 -1.21 0.00
 -7 -3 2 1.14 0.00
 -7 -3 1 0.49 0.00
 7 3 0 0.52 0.00
 7 3 1 0.50 0.00
 7 3 2 0.23 0.00
 7 3 3 -0.93 0.00
 7 3 4 -2.02 0.00
 7 3 5 -1.94 0.00
 7 3 6 -0.39 0.00
 7 3 7 1.88 0.00
 7 3 8 1.56 0.00
 7 3 9 -0.47 0.00
 7 3 10 -0.44 0.00
 7 3 11 -0.71 0.00
 7 3 12 -1.92 0.00
 7 3 14 1.69 0.00
 7 3 15 -0.98 0.00
 -7 -4 2 1.63 0.00
 -7 -4 1 0.77 0.00
 7 4 0 -0.23 0.00
 7 4 1 -0.11 0.00
 7 4 2 0.85 0.00
 7 4 3 0.01 0.00
 7 4 4 -1.90 0.00
 7 4 5 -2.03 0.00
 7 4 6 -0.73 0.00
 7 4 7 1.73 0.00
 7 4 9 0.29 0.00
 7 4 10 -1.03 0.00
 7 4 11 0.07 0.00
 7 4 12 -1.03 0.00
 7 4 13 -1.32 0.00
 7 4 14 1.13 0.00
 7 4 15 0.69 0.00
 -7 -5 3 0.43 0.00
 -7 -5 2 1.03 0.00
 -7 -5 1 0.89 0.00
 7 5 0 0.50 0.00
 7 5 1 -0.40 0.00
 7 5 2 -0.32 0.00
 7 5 3 0.35 0.00
 7 5 4 -0.89 0.00
 7 5 5 -2.46 0.00
 7 5 6 -1.43 0.00
 7 5 7 1.93 0.00
 7 5 8 3.79 0.00
 7 5 9 1.12 0.00
 7 5 11 -0.21 0.00
 7 5 12 -0.22 0.00
 7 5 14 -0.87 0.00
 7 5 15 0.40 0.00
 -7 -6 3 1.16 0.00
 -7 -6 2 1.01 0.00
 -7 -6 1 0.02 0.00
 7 6 0 0.55 0.00
 7 6 1 0.46 0.00
 7 6 2 -0.82 0.00
 7 6 3 -0.18 0.00
 7 6 4 -0.21 0.00
 7 6 5 -2.95 0.00
 7 6 6 -2.92 0.00
 7 6 7 1.27 0.00
 7 6 8 3.73 0.00
 7 6 9 1.78 0.00
 7 6 10 -0.76 0.00
 7 6 11 -0.55 0.00
 7 6 12 -0.21 0.00
 7 6 13 -1.86 0.00
 7 6 14 -2.44 0.00
 -7 -7 3 0.92 0.00
 -7 -7 2 1.74 0.00
 -7 -7 1 0.60 0.00
 7 7 0 0.08 0.00
 7 7 1 0.21 0.00
 7 7 2 -0.52 0.00
 7 7 3 0.41 0.00
 7 7 4 0.72 0.00
 7 7 5 -3.10 0.00
 7 7 6 -4.25 0.00
 7 7 7 -0.03 0.00
 7 7 8 2.14 0.00
 7 7 9 1.13 0.00
 7 7 10 0.13 0.00
 7 7 11 -0.50 0.00
 7 7 12 -0.33 0.00
 7 7 13 -0.85 0.00
 7 7 14 -2.66 0.00
 -7 -8 3 -0.27 0.00
 -7 -8 2 0.81 0.00
 -7 -8 1 1.25 0.00
 7 8 0 1.03 0.00
 7 8 1 0.12 0.00
 7 8 2 -0.91 0.00
 7 8 3 0.85 0.00
 7 8 4 2.50 0.00
 7 8 5 -1.52 0.00
 7 8 6 -4.49 0.00
 7 8 7 -1.13 0.00
 7 8 8 0.55 0.00
 7 8 10 0.00 0.00
 7 8 11 -0.80 0.00
 7 8 12 -1.21 0.00
 7 8 13 0.33 0.00
 -7 -9 4 -0.68 0.00
 -7 -9 3 -0.20 0.00
 -7 -9 2 0.17 0.00
 -7 -9 1 0.47 0.00
 7 9 0 1.17 0.00
 7 9 1 0.94 0.00
 7 9 2 -0.42 0.00
 7 9 3 0.24 0.00
 7 9 4 2.69 0.00
 7 9 5 1.18 0.00
 7 9 6 -2.58 0.00
 7 9 7 -1.77 0.00
 7 9 8 -0.22 0.00
 7 9 9 -1.14 0.00
 7 9 10 -0.85 0.00
 7 9 11 -1.51 0.00
 7 9 12 -2.53 0.00
 -7 -10 4 0.02 0.00
 -7 -10 3 0.16 0.00
 -7 -10 2 0.86 0.00
 -7 -10 1 0.80 0.00
 7 10 0 0.83 0.00
 7 10 1 0.86 0.00
 7 10 2 0.54 0.00
 7 10 3 0.32 0.00
 7 10 4 1.03 0.00
 7 10 5 1.74 0.00
 7 10 6 0.20 0.00
 7 10 7 -1.26 0.00
 7 10 8 -0.68 0.00
 7 10 9 -0.58 0.00
 7 10 10 -1.09 0.00
 7 10 11 -2.23 0.00
 -7 -11 3 0.54 0.00
 -7 -11 2 1.06 0.00
 -7 -11 1 1.29 0.00
 7 11 0 1.42 0.00
 7 11 1 1.11 0.00
 7 11 2 0.84 0.00
 7 11 3 0.96 0.00
 7 11 4 0.12 0.00
 7 11 5 -0.04 0.00
 7 11 6 0.63 0.00
 7 11 7 -0.14 0.00
 7 11 8 -0.57 0.00
 7 11 9 -0.13 0.00
 -7 -12 1 1.22 0.00
 7 12 0 1.15 0.00
 7 12 1 1.38 0.00
 7 12 2 1.06 0.00
 7 12 3 1.39 0.00
 7 12 4 0.84 0.00
 7 12 5 -1.00 0.00
 7 12 6 -1.15 0.00
 7 12 7 -0.43 0.00
 8 -10 3 1.77 0.00
 8 -10 4 0.03 0.00
 8 -10 5 -0.67 0.00
 8 -10 6 -1.44 0.00
 8 -9 3 2.23 0.00
 8 -9 4 0.13 0.00
 8 -9 5 -0.05 0.00
 8 -9 6 -0.59 0.00
 8 -9 7 -1.65 0.00
 8 -9 8 -0.92 0.00
 8 -8 3 2.54 0.00
 8 -8 4 0.50 0.00
 8 -8 5 -0.19 0.00
 8 -8 6 -0.08 0.00
 8 -8 7 -0.80 0.00
 8 -8 8 -1.20 0.00
 8 -8 9 -0.49 0.00
 8 -8 10 0.61 0.00
 8 -7 2 2.40 0.00
 8 -7 3 2.10 0.00
 8 -7 4 1.19 0.00
 8 -7 5 0.01 0.00
 8 -7 6 -0.30 0.00
 8 -7 7 -0.45 0.00
 8 -7 8 -0.69 0.00
 8 -7 9 -0.68 0.00
 8 -7 10 -0.23 0.00
 8 -7 11 0.35 0.00
 8 -6 2 1.90 0.00
 8 -6 3 1.70 0.00
 8 -6 4 1.24 0.00
 8 -6 5 0.13 0.00
 8 -6 6 0.11 0.00
 8 -6 7 -0.16 0.00
 8 -6 8 -1.01 0.00
 8 -6 9 -0.31 0.00
 8 -6 10 0.35 0.00
 8 -6 11 -0.14 0.00
 8 -6 12 -0.91 0.00
 8 -5 2 0.68 0.00
 8 -5 3 0.91 0.00
 8 -5 4 1.31 0.00
 8 -5 5 -0.56 0.00
 8 -5 6 -0.25 0.00
 8 -5 7 1.10 0.00
 8 -5 8 -0.51 0.00
 8 -5 9 -0.65 0.00
 8 -5 10 0.92 0.00
 8 -5 11 0.63 0.00
 8 -5 12 -0.57 0.00
 8 -5 13 -1.51 0.00
 8 -4 1 1.88 0.00
 8 -4 2 0.88 0.00
 8 -4 3 -0.39 0.00
 8 -4 4 0.96 0.00
 8 -4 5 -0.58 0.00
 8 -4 6 -1.74 0.00
 8 -4 7 0.71 0.00
 8 -4 8 1.01 0.00
 8 -4 9 0.52 0.00
 8 -4 10 1.12 0.00
 8 -4 11 0.54 0.00
 8 -4 12 0.36 0.00
 8 -4 13 -0.14 0.00
 8 -3 1 0.58 0.00
 8 -3 2 1.93 0.00
 8 -3 3 0.33 0.00
 8 -3 4 0.45 0.00
 8 -3 5 -0.02 0.00
 8 -3 6 -1.88 0.00
 8 -3 7 -0.97 0.00
 8 -3 8 0.37 0.00
 8 -3 9 1.68 0.00
 8 -3 10 2.79 0.00
 8 -3 11 0.81 0.00
 8 -3 12 -0.24 0.00
 8 -3 13 0.60 0.00
 8 -3 14 -0.38 0.00
 8 -2 1 -0.41 0.00
 8 -2 2 0.56 0.00
 8 -2 3 1.51 0.00
 8 -2 4 1.19 0.00
 8 -2 5 0.59 0.00
 8 -2 6 -0.73 0.00
 8 -2 7 -0.99 0.00
 8 -2 8 -0.91 0.00
 8 -2 9 -0.07 0.00
 8 -2 10 2.66 0.00
 8 -2 11 2.41 0.00
 8 -2 12 -0.12 0.00
 8 -2 13 -0.43 0.00
 8 -2 14 -0.49 0.00
 8 -1 1 2.13 0.00
 8 -1 2 -0.37 0.00
 8 -1 3 0.79 0.00
 8 -1 4 1.41 0.00
 8 -1 5 1.14 0.00
 8 -1 6 0.23 0.00
 8 -1 7 -0.26 0.00
 8 -1 8 -0.30 0.00
 8 -1 9 -1.42 0.00
 8 -1 10 -0.70 0.00
 8 -1 11 1.34 0.00
 8 -1 12 0.56 0.00
 8 -1 13 -1.01 0.00
 8 -1 14 -1.47 0.00
 8 0 1 3.82 0.00
 8 0 2 1.11 0.00
 8 0 3 0.56 0.00
 8 0 4 0.38 0.00
 8 0 5 0.76 0.00
 8 0 6 0.75 0.00
 8 0 7 -0.56 0.00
 8 0 8 -0.12 0.00
 8 0 9 -0.39 0.00
 8 0 10 -2.51 0.00
 8 0 11 -1.97 0.00
 8 0 12 -0.86 0.00
 8 0 13 -1.83 0.00
 8 0 14 -2.33 0.00
 8 1 0 2.14 0.00
 8 1 1 1.85 0.00
 8 1 2 1.25 0.00
 8 1 3 1.09 0.00
 8 1 4 -0.11 0.00
 8 1 5 -0.02 0.00
 8 1 6 1.07 0.00
 8 1 7 -0.73 0.00
 8 1 8 -1.45 0.00
 8 1 9 0.00 0.00
 8 1 10 -1.60 0.00
 8 1 11 -3.24 0.00
 8 1 12 -2.28 0.00
 8 1 13 -2.74 0.00
 8 1 14 -3.96 0.00
 8 1 15 -3.39 0.00
 8 2 0 0.45 0.00
 8 2 1 -0.46 0.00
 8 2 2 -0.49 0.00
 8 2 3 -0.02 0.00
 8 2 4 -0.47 0.00
 8 2 5 -0.08 0.00
 8 2 6 1.34 0.00
 8 2 7 0.10 0.00
 8 2 8 -1.68 0.00
 8 2 9 -0.58 0.00
 8 2 10 -0.62 0.00
 8 2 11 -2.37 0.00
 8 2 12 -1.81 0.00
 8 2 13 -1.31 0.00
 8 2 14 -3.82 0.00
 8 2 15 -5.35 0.00
 -8 -3 1 0.51 0.00
 8 3 0 -0.41 0.00
 8 3 1 -1.18 0.00
 8 3 2 -0.87 0.00
 8 3 3 -1.29 0.00
 8 3 4 -1.64 0.00
 8 3 5 0.13 0.00
 8 3 6 1.84 0.00
 8 3 7 1.18 0.00
 8 3 8 -0.21 0.00
 8 3 9 -0.17 0.00
 8 3 10 0.14 0.00
 8 3 11 -0.75 0.00
 8 3 12 -0.62 0.00
 8 3 13 0.95 0.00
 8 3 14 -0.52 0.00
 -8 -4 1 0.59 0.00
 8 4 0 -0.57 0.00
 8 4 1 -1.50 0.00
 8 4 2 -0.30 0.00
 8 4 3 -0.31 0.00
 8 4 4 -1.55 0.00
 8 4 5 0.01 0.00
 8 4 6 2.22 0.00
 8 4 7 2.38 0.00
 8 4 8 1.68 0.00
 8 4 9 0.80 0.00
 8 4 10 0.68 0.00
 8 4 11 1.00 0.00
 8 4 12 0.89 0.00
 8 4 13 1.94 0.00
 8 4 14 2.28 0.00
 -8 -5 1 -0.21 0.00
 8 5 0 -0.11 0.00
 8 5 1 -0.98 0.00
 8 5 2 -0.63 0.00
 8 5 3 0.63 0.00
 8 5 4 0.48 0.00
 8 5 5 0.79 0.00
 8 5 6 2.06 0.00
 8 5 7 3.13 0.00
 8 5 8 3.40 0.00
 8 5 9 1.66 0.00
 8 5 10 0.40 0.00
 8 5 11 1.46 0.00
 8 5 12 1.82 0.00
 8 5 13 1.89 0.00
 8 5 14 2.75 0.00
 -8 -6 2 1.37 0.00
 -8 -6 1 -1.67 0.00
 8 6 0 -1.36 0.00
 8 6 1 -0.12 0.00
 8 6 2 -0.18 0.00
 8 6 3 0.40 0.00
 8 6 4 1.34 0.00
 8 6 5 1.79 0.00
 8 6 6 2.24 0.00
 8 6 7 3.12 0.00
 8 6 8 3.74 0.00
 8 6 9 2.15 0.00
 8 6 10 0.05 0.00
 8 6 11 0.57 0.00
 8 6 12 1.23 0.00
 8 6 13 0.78 0.00
 -8 -7 2 3.18 0.00
 -8 -7 1 -0.59 0.00
 8 7 0 -3.06 0.00
 8 7 1 -1.69 0.00
 8 7 2 0.12 0.00
 8 7 3 1.25 0.00
 8 7 4 1.46 0.00
 8 7 5 0.91 0.00
 8 7 6 1.81 0.00
 8 7 7 3.20 0.00
 8 7 8 2.79 0.00
 8 7 9 1.35 0.00
 8 7 10 -0.07 0.00
 8 7 11 -0.53 0.00
 8 7 12 -0.09 0.00
 8 7 13 -0.31 0.00
 -8 -8 2 2.78 0.00
 -8 -8 1 1.59 0.00
 8 8 0 -1.69 0.00
 8 8 1 -2.94 0.00
 8 8 2 -1.69 0.00
 8 8 3 1.23 0.00
 8 8 4 2.78 0.00
 8 8 5 0.64 0.00
 8 8 6 0.11 0.00
 8 8 7 2.52 0.00
 8 8 8 1.90 0.00
 8 8 9 -0.11 0.00
 8 8 10 -0.35 0.00
 8 8 11 -1.19 0.00
 8 8 12 -1.54 0.00
 -8 -9 2 0.97 0.00
 -8 -9 1 1.41 0.00
 8 9 0 -0.09 0.00
 8 9 1 -1.52 0.00
 8 9 2 -2.10 0.00
 8 9 3 -0.59 0.00
 8 9 4 2.47 0.00
 8 9 5 2.19 0.00
 8 9 6 0.14 0.00
 8 9 7 1.11 0.00
 8 9 8 1.05 0.00
 8 9 9 -0.95 0.00
 8 9 10 -0.82 0.00
 8 9 11 -1.18 0.00
 -8 -10 2 0.29 0.00
 -8 -10 1 0.85 0.00
 8 10 0 0.10 0.00
 8 10 1 -0.51 0.00
 8 10 2 -0.65 0.00
 8 10 3 -0.79 0.00
 8 10 4 0.49 0.00
 8 10 5 2.23 0.00
 8 10 6 1.85 0.00
 8 10 7 1.11 0.00
 8 10 8 0.49 0.00
 8 10 9 -0.90 0.00
 8 10 10 -1.13 0.00
 8 11 0 0.59 0.00
 8 11 1 0.23 0.00
 8 11 2 0.20 0.00
 8 11 3 0.24 0.00
 8 11 4 -0.14 0.00
 8 11 5 0.69 0.00
 8 11 6 2.04 0.00
 8 11 7 1.87 0.00
 9 -9 4 0.94 0.00
 9 -9 5 1.58 0.00
 9 -9 6 1.01 0.00
 9 -8 4 1.30 0.00
 9 -8 5 0.69 0.00
 9 -8 6 0.89 0.00
 9 -8 7 -0.95 0.00
 9 -8 8 -2.18 0.00
 9 -7 4 1.95 0.00
 9 -7 5 0.47 0.00
 9 -7 6 0.09 0.00
 9 -7 7 -0.89 0.00
 9 -7 8 -1.65 0.00
 9 -7 9 -0.92 0.00
 9 -6 3 2.18 0.00
 9 -6 4 1.76 0.00
 9 -6 5 0.36 0.00
 9 -6 6 0.17 0.00
 9 -6 7 -0.55 0.00
 9 -6 8 -1.60 0.00
 9 -6 9 -0.46 0.00
 9 -6 10 1.58 0.00
 9 -5 3 0.70 0.00
 9 -5 4 1.95 0.00
 9 -5 5 -0.08 0.00
 9 -5 6 -0.22 0.00
 9 -5 7 0.78 0.00
 9 -5 8 -0.70 0.00
 9 -5 9 -0.65 0.00
 9 -5 10 2.12 0.00
 9 -5 11 3.53 0.00
 9 -4 3 -1.99 0.00
 9 -4 4 1.34 0.00
 9 -4 5 0.42 0.00
 9 -4 6 -1.21 0.00
 9 -4 7 0.80 0.00
 9 -4 8 1.03 0.00
 9 -4 9 0.18 0.00
 9 -4 10 1.53 0.00
 9 -4 11 3.40 0.00
 9 -4 12 3.96 0.00
 9 -3 2 -0.40 0.00
 9 -3 3 -2.41 0.00
 9 -3 4 -0.36 0.00
 9 -3 5 0.70 0.00
 9 -3 6 -1.16 0.00
 9 -3 7 -0.43 0.00
 9 -3 8 0.89 0.00
 9 -3 9 1.30 0.00
 9 -3 10 1.80 0.00
 9 -3 11 2.03 0.00
 9 -3 12 3.25 0.00
 9 -3 13 3.58 0.00
 9 -2 2 -1.07 0.00
 9 -2 3 -0.86 0.00
 9 -2 4 -0.28 0.00
 9 -2 5 0.50 0.00
 9 -2 6 -0.44 0.00
 9 -2 7 -0.68 0.00
 9 -2 8 -0.46 0.00
 9 -2 9 0.12 0.00
 9 -2 10 1.62 0.00
 9 -2 11 1.69 0.00
 9 -2 12 1.67 0.00
 9 -2 13 2.28 0.00
 9 -1 2 -2.77 0.00
 9 -1 3 -1.06 0.00
 9 -1 4 0.45 0.00
 9 -1 5 0.84 0.00
 9 -1 6 0.20 0.00
 9 -1 7 -0.09 0.00
 9 -1 8 -0.45 0.00
 9 -1 9 -1.51 0.00
 9 -1 10 -0.85 0.00
 9 -1 11 0.68 0.00
 9 -1 12 0.95 0.00
 9 -1 13 0.63 0.00
 9 0 2 -1.96 0.00
 9 0 3 -1.61 0.00
 9 0 4 -0.14 0.00
 9 0 5 0.74 0.00
 9 0 6 0.55 0.00
 9 0 7 -0.19 0.00
 9 0 8 -0.05 0.00
 9 0 9 -1.05 0.00
 9 0 10 -2.68 0.00
 9 0 11 -1.79 0.00
 9 0 12 -0.40 0.00
 9 0 13 -0.67 0.00
 9 1 1 1.93 0.00
 9 1 2 -0.40 0.00
 9 1 3 -0.94 0.00
 9 1 4 -0.66 0.00
 9 1 5 0.09 0.00
 9 1 6 0.49 0.00
 9 1 7 -0.95 0.00
 9 1 8 -1.07 0.00
 9 1 9 -0.42 0.00
 9 1 10 -2.16 0.00
 9 1 11 -2.91 0.00
 9 1 12 -1.67 0.00
 9 1 13 -1.92 0.00
 9 1 14 -2.53 0.00
 9 2 1 0.89 0.00
 9 2 2 0.00 0.00
 9 2 3 -0.85 0.00
 9 2 4 -0.96 0.00
 9 2 5 0.05 0.00
 9 2 6 0.49 0.00
 9 2 7 -1.44 0.00
 9 2 8 -2.20 0.00
 9 2 9 -0.93 0.00
 9 2 10 -1.62 0.00
 9 2 11 -2.54 0.00
 9 2 12 -1.25 0.00
 9 2 13 -1.32 0.00
 9 3 1 -0.38 0.00
 9 3 2 0.31 0.00
 9 3 3 -1.18 0.00
 9 3 4 -2.26 0.00
 9 3 5 -0.09 0.00
 9 3 6 1.02 0.00
 9 3 7 -1.34 0.00
 9 3 8 -2.29 0.00
 9 3 9 -0.98 0.00
 9 3 10 -1.48 0.00
 9 3 11 -2.33 0.00
 9 3 12 -0.51 0.00
 9 3 13 0.76 0.00
 9 4 0 -1.06 0.00
 9 4 1 -1.38 0.00
 9 4 2 0.48 0.00
 9 4 3 -0.10 0.00
 9 4 4 -2.76 0.00
 9 4 5 -1.29 0.00
 9 4 6 0.96 0.00
 9 4 7 -0.55 0.00
 9 4 8 -1.54 0.00
 9 4 9 -0.49 0.00
 9 4 10 -0.86 0.00
 9 4 11 -1.80 0.00
 9 4 12 -0.28 0.00
 9 4 13 2.01 0.00
 9 5 0 -0.16 0.00
 9 5 1 -0.99 0.00
 9 5 2 -0.25 0.00
 9 5 3 0.69 0.00
 9 5 4 -0.99 0.00
 9 5 5 -1.35 0.00
 9 5 6 -0.27 0.00
 9 5 7 -0.40 0.00
 9 5 8 -0.26 0.00
 9 5 9 0.08 0.00
 9 5 10 -0.51 0.00
 9 5 11 -0.95 0.00
 9 5 12 -0.07 0.00
 9 5 13 2.01 0.00
 9 6 0 -0.98 0.00
 9 6 1 0.24 0.00
 9 6 2 0.14 0.00
 9 6 3 0.16 0.00
 9 6 4 -0.15 0.00
 9 6 5 -0.01 0.00
 9 6 6 -0.27 0.00
 9 6 7 -1.06 0.00
 9 6 8 -0.17 0.00
 9 6 9 0.44 0.00
 9 6 10 -0.48 0.00
 9 6 11 -0.57 0.00
 9 6 12 -0.01 0.00
 9 7 0 -3.28 0.00
 9 7 1 -1.14 0.00
 9 7 2 0.82 0.00
 9 7 3 0.96 0.00
 9 7 4 -0.33 0.00
 9 7 5 -0.58 0.00
 9 7 6 0.20 0.00
 9 7 7 -0.36 0.00
 9 7 8 -0.85 0.00
 9 7 9 -0.44 0.00
 9 7 10 -0.71 0.00
 9 7 11 -0.72 0.00
 -9 -8 1 0.15 0.00
 9 8 0 -3.10 0.00
 9 8 1 -3.39 0.00
 9 8 2 -1.23 0.00
 9 8 3 1.21 0.00
 9 8 4 1.21 0.00
 9 8 5 -1.07 0.00
 9 8 6 -1.26 0.00
 9 8 7 0.16 0.00
 9 8 8 -0.41 0.00
 9 8 9 -1.32 0.00
 9 8 10 -1.19 0.00
 -9 -9 1 1.09 0.00
 9 9 0 -1.55 0.00
 9 9 1 -2.95 0.00
 9 9 2 -2.77 0.00
 9 9 3 -1.05 0.00
 9 9 4 1.50 0.00
 9 9 5 0.81 0.00
 9 9 6 -1.49 0.00
 9 9 7 -0.88 0.00
 9 9 8 -0.27 0.00
 9 9 9 -1.09 0.00
 9 10 1 -2.04 0.00
 9 10 2 -2.01 0.00
 9 10 3 -2.02 0.00
 9 10 4 -0.36 0.00
 9 10 5 1.47 0.00
 9 10 6 0.55 0.00
 9 10 7 -0.59 0.00
 10 -7 5 -0.71 0.00
 10 -7 6 -0.95 0.00
 10 -7 7 -2.72 0.00
 10 -6 5 -0.89 0.00
 10 -6 6 -0.40 0.00
 10 -6 7 -2.35 0.00
 10 -6 8 -4.23 0.00
 10 -5 5 -1.30 0.00
 10 -5 6 -0.33 0.00
 10 -5 7 -0.32 0.00
 10 -5 8 -3.26 0.00
 10 -5 9 -3.90 0.00
 10 -4 4 1.11 0.00
 10 -4 5 0.02 0.00
 10 -4 6 -0.99 0.00
 10 -4 7 0.47 0.00
 10 -4 8 -0.89 0.00
 10 -4 9 -3.15 0.00
 10 -4 10 -1.69 0.00
 10 -3 4 0.05 0.00
 10 -3 5 1.39 0.00
 10 -3 6 -0.45 0.00
 10 -3 7 -0.09 0.00
 10 -3 8 -0.03 0.00
 10 -3 9 -1.53 0.00
 10 -3 10 -1.47 0.00
 10 -3 11 0.28 0.00
 10 -2 4 -0.54 0.00
 10 -2 5 1.30 0.00
 10 -2 6 0.48 0.00
 10 -2 7 0.04 0.00
 10 -2 8 -0.47 0.00
 10 -2 9 -1.42 0.00
 10 -2 10 -1.05 0.00
 10 -2 11 0.13 0.00
 10 -1 3 -2.11 0.00
 10 -1 4 0.01 0.00
 10 -1 5 1.17 0.00
 10 -1 6 0.92 0.00
 10 -1 7 0.88 0.00
 10 -1 8 -0.04 0.00
 10 -1 9 -1.96 0.00
 10 -1 10 -1.98 0.00
 10 -1 11 -0.20 0.00
 10 -1 12 1.43 0.00
 10 0 3 -2.38 0.00
 10 0 4 0.06 0.00
 10 0 5 1.00 0.00
 10 0 6 0.85 0.00
 10 0 7 1.09 0.00
 10 0 8 0.98 0.00
 10 0 9 -1.03 0.00
 10 0 10 -2.75 0.00
 10 0 11 -1.60 0.00
 10 0 12 0.71 0.00
 10 1 2 -3.33 0.00
 10 1 3 -2.31 0.00
 10 1 4 -0.07 0.00
 10 1 5 0.74 0.00
 10 1 6 0.42 0.00
 10 1 7 0.08 0.00
 10 1 8 0.53 0.00
 10 1 9 0.05 0.00
 10 1 10 -1.96 0.00
 10 1 11 -2.31 0.00
 10 1 12 -0.62 0.00
 10 2 2 -2.38 0.00
 10 2 3 -2.52 0.00
 10 2 4 -0.55 0.00
 10 2 5 0.98 0.00
 10 2 6 0.35 0.00
 10 2 7 -1.21 0.00
 10 2 8 -1.07 0.00
 10 2 9 -0.61 0.00
 10 2 10 -1.89 0.00
 10 2 11 -2.23 0.00
 10 2 12 -0.84 0.00
 10 3 2 -1.02 0.00
 10 3 3 -2.65 0.00
 10 3 4 -2.20 0.00
 10 3 5 0.77 0.00
 10 3 6 1.07 0.00
 10 3 7 -1.76 0.00
 10 3 8 -2.23 0.00
 10 3 9 -1.47 0.00
 10 3 10 -3.16 0.00
 10 3 11 -3.53 0.00
 10 3 12 -0.89 0.00
 10 4 2 0.22 0.00
 10 4 3 -1.40 0.00
 10 4 4 -3.49 0.00
 10 4 5 -1.02 0.00
 10 4 6 1.22 0.00
 10 4 7 -1.09 0.00
 10 4 8 -2.24 0.00
 10 4 9 -1.41 0.00
 10 4 11 -5.16 0.00
 10 4 12 -2.22 0.00
 10 5 1 0.73 0.00
 10 5 2 0.40 0.00
 10 5 3 0.05 0.00
 10 5 4 -2.46 0.00
 10 5 5 -2.33 0.00
 10 5 6 -0.42 0.00
 10 5 7 -0.75 0.00
 10 5 8 -0.93 0.00
 10 5 9 -0.50 0.00
 10 5 10 -2.53 0.00
 10 5 11 -4.91 0.00
 10 6 1 1.81 0.00
 10 6 2 0.77 0.00
 10 6 3 0.21 0.00
 10 6 4 -1.37 0.00
 10 6 5 -1.61 0.00
 10 6 6 -1.29 0.00
 10 6 7 -1.77 0.00
 10 6 8 -0.42 0.00
 10 6 9 0.83 0.00
 10 6 10 -0.89 0.00
 10 7 1 1.41 0.00
 10 7 2 1.58 0.00
 10 7 3 1.00 0.00
 10 7 4 -1.28 0.00
 10 7 5 -1.85 0.00
 10 7 6 -0.89 0.00
 10 7 7 -1.50 0.00
 10 7 8 -1.11 0.00
 10 7 9 0.55 0.00
 10 8 1 -0.27 0.00
 10 8 2 0.52 0.00
 10 8 3 1.62 0.00
 10 8 4 0.20 0.00
 10 8 5 -2.43 0.00
 10 8 6 -2.22 0.00
 10 8 7 -0.74 0.00
 10 8 8 -0.46 0.00
 11 -5 6 0.85 0.00
 11 -4 6 0.26 0.00
 11 -4 7 0.65 0.00
 11 -3 5 1.40 0.00
 11 -3 6 0.08 0.00
 11 -3 7 0.32 0.00
 11 -3 8 -0.05 0.00
 11 -2 5 1.33 0.00
 11 -2 6 0.33 0.00
 11 -2 7 -0.01 0.00
 11 -2 8 -0.36 0.00
 11 -2 9 -1.05 0.00
 11 -1 5 1.06 0.00
 11 -1 6 0.46 0.00
 11 -1 7 0.45 0.00
 11 -1 8 -0.45 0.00
 11 -1 9 -1.88 0.00
 11 -1 10 -1.28 0.00
 11 0 4 1.06 0.00
 11 0 5 1.00 0.00
 11 0 6 0.45 0.00
 11 0 7 1.11 0.00
 11 0 8 0.58 0.00
 11 0 9 -1.78 0.00
 11 0 10 -2.63 0.00
 11 1 4 1.85 0.00
 11 1 5 1.52 0.00
 11 1 6 0.41 0.00
 11 1 7 0.93 0.00
 11 1 8 1.23 0.00
 11 1 9 -0.57 0.00
 11 1 10 -2.51 0.00
 11 2 4 2.12 0.00
 11 2 5 2.75 0.00
 11 2 6 1.13 0.00
 11 2 7 0.43 0.00
 11 2 8 0.73 0.00
 11 2 9 -0.34 0.00
 11 2 10 -2.09 0.00
 11 3 3 -2.34 0.00
 11 3 4 0.83 0.00
 11 3 5 3.40 0.00
 11 3 6 2.59 0.00
 11 3 7 0.50 0.00
 11 3 8 0.26 0.00
 11 3 9 -0.58 0.00
 11 3 10 -2.97 0.00
 11 4 3 -3.25 0.00
 11 4 4 -1.36 0.00
 11 4 5 2.15 0.00
 11 4 6 3.47 0.00
 11 4 7 1.37 0.00
 11 4 8 0.36 0.00
 11 4 9 -0.14 0.00
 11 5 3 -2.94 0.00
 11 5 4 -2.46 0.00
 11 5 5 0.00 0.00
 11 5 6 2.33 0.00
 11 5 7 1.95 0.00
 11 5 8 1.38 0.00
 11 6 3 -2.00 0.00
 11 6 4 -2.40 0.00
 11 6 5 -0.90 0.00
 11 6 6 0.71 0.00
 11 6 7 0.82 0.00
 12 1 5 0.66 0.00
 0 0 11 0.96 0.00
 0 -1 10 2.20 0.00
 0 1 11 0.43 0.00
 0 1 12 -0.50 0.00
 0 2 11 0.41 0.00
 0 2 12 -0.15 0.00
 0 2 13 -0.86 0.00
 0 3 9 -1.13 0.00
 0 3 11 0.69 0.00
 0 3 12 0.60 0.00
 0 3 13 -0.43 0.00
 0 4 10 -1.35 0.00
 0 4 11 0.12 0.00
 0 4 12 0.69 0.00
 0 4 13 0.34 0.00
 0 4 14 0.39 0.00
 0 5 10 -1.54 0.00
 0 5 11 -1.23 0.00
 0 5 12 -0.52 0.00
 0 5 13 0.45 0.00
 0 5 14 0.54 0.00
 0 5 15 -0.03 0.00
 0 6 9 -0.63 0.00
 0 6 10 -0.49 0.00
 0 6 11 -1.73 0.00
 0 6 12 -2.28 0.00
 0 6 13 -0.25 0.00
 0 6 14 0.17 0.00
 0 6 15 -1.05 0.00
 0 7 9 -1.07 0.00
 0 7 10 0.31 0.00
 0 7 11 -0.72 0.00
 0 7 12 -2.74 0.00
 0 7 13 -1.24 0.00
 0 7 14 -0.21 0.00
 0 7 15 -1.90 0.00
 0 8 9 -1.69 0.00
 0 8 10 -0.03 0.00
 0 8 11 0.42 0.00
 0 8 12 -1.35 0.00
 0 8 13 -1.55 0.00
 0 8 14 -0.49 0.00
 0 9 9 -1.80 0.00
 0 9 10 -0.88 0.00
 0 9 11 0.55 0.00
 0 9 12 0.43 0.00
 0 9 13 -1.01 0.00
 0 10 8 0.42 0.00
 0 10 9 -0.73 0.00
 0 10 10 -1.05 0.00
 0 10 11 0.11 0.00
 0 10 12 1.40 0.00
 0 10 13 -0.08 0.00
 0 11 8 0.25 0.00
 0 11 9 0.24 0.00
 0 11 10 -0.28 0.00
 0 11 11 -0.26 0.00
 0 11 12 1.27 0.00
 0 12 8 -0.83 0.00
 0 12 9 -0.24 0.00
 0 12 10 0.57 0.00
 0 13 7 0.92 0.00
 0 13 8 -1.37 0.00
 0 13 9 -1.30 0.00
 0 14 7 0.46 0.00
 -1 14 6 2.23 0.00
 -1 13 8 -0.61 0.00
 -1 13 7 2.03 0.00
 -1 13 6 2.23 0.00
 -1 12 10 0.49 0.00
 -1 12 9 -0.73 0.00
 -1 12 8 -1.31 0.00
 -1 12 7 0.88 0.00
 -1 11 11 0.44 0.00
 -1 11 10 -0.09 0.00
 -1 11 9 -0.56 0.00
 -1 11 8 -0.99 0.00
 -1 11 7 -0.01 0.00
 -1 10 12 2.30 0.00
 -1 10 11 1.05 0.00
 -1 10 10 -0.34 0.00
 -1 10 9 -1.34 0.00
 -1 10 8 -1.04 0.00
 -1 10 7 0.39 0.00
 -1 9 13 1.90 0.00
 -1 9 12 2.58 0.00
 -1 9 11 1.44 0.00
 -1 9 10 -0.25 0.00
 -1 9 9 -2.15 0.00
 -1 9 8 -2.19 0.00
 -1 9 7 0.17 0.00
 -1 8 14 -0.56 0.00
 -1 8 13 1.03 0.00
 -1 8 12 2.19 0.00
 -1 8 11 1.83 0.00
 -1 8 10 -0.07 0.00
 -1 8 9 -2.36 0.00
 -1 8 8 -2.62 0.00
 -1 7 14 -0.22 0.00
 -1 7 13 -0.17 0.00
 -1 7 12 0.76 0.00
 -1 7 11 1.71 0.00
 -1 7 10 0.04 0.00
 -1 7 9 -2.49 0.00
 -1 7 8 -2.33 0.00
 -1 6 15 1.50 0.00
 -1 6 14 1.43 0.00
 -1 6 13 -0.22 0.00
 -1 6 12 -0.44 0.00
 -1 6 11 0.97 0.00
 -1 6 10 -0.21 0.00
 -1 6 9 -2.52 0.00
 -1 6 8 -2.37 0.00
 -1 5 15 2.18 0.00
 -1 5 14 3.11 0.00
 -1 5 13 0.75 0.00
 -1 5 12 -0.46 0.00
 -1 5 11 0.59 0.00
 -1 5 10 -0.57 0.00
 -1 5 9 -2.44 0.00
 -1 5 8 -2.20 0.00
 -1 4 14 3.15 0.00
 -1 4 13 1.64 0.00
 -1 4 12 0.09 0.00
 -1 4 11 0.62 0.00
 -1 4 10 -0.32 0.00
 -1 4 9 -2.23 0.00
 -1 4 8 -2.30 0.00
 -1 4 7 -2.34 0.00
 -1 3 13 1.10 0.00
 -1 3 12 0.44 0.00
 -1 3 11 0.42 0.00
 -1 3 10 0.24 0.00
 -1 3 9 -1.25 0.00
 -1 2 13 -0.74 0.00
 -1 2 12 -0.11 0.00
 -1 2 11 -0.10 0.00
 -1 2 10 0.20 0.00
 -1 2 9 0.16 0.00
 -1 2 3 9.90 0.00
 -1 1 12 -0.92 0.00
 -1 1 11 -0.39 0.00
 -1 1 10 -0.57 0.00
 -1 1 4 -2.29 0.00
 -1 1 3 5.04 0.00
 -1 1 2 22.66 0.00
 -1 1 1 42.56 0.00
 -1 1 0 34.44 0.00
 -1 0 11 0.39 0.00
 -1 0 10 -0.41 0.00
 -1 0 3 -0.25 0.00
 -1 0 2 10.41 0.00
 -1 0 1 40.72 0.00
 -1 -1 10 1.27 0.00
 1 2 12 0.79 0.00
 1 3 12 0.95 0.00
 1 3 13 0.17 0.00
 1 4 11 -1.07 0.00
 1 4 12 0.57 0.00
 1 4 13 0.01 0.00
 1 4 14 0.15 0.00
 1 5 11 -3.02 0.00
 1 5 12 -0.70 0.00
 1 5 13 0.06 0.00
 1 5 14 -0.52 0.00
 1 5 15 0.01 0.00
 1 6 11 -3.87 0.00
 1 6 12 -2.47 0.00
 1 6 13 0.25 0.00
 1 6 14 -0.83 0.00
 1 6 15 -1.94 0.00
 1 7 11 -2.92 0.00
 1 7 12 -3.40 0.00
 1 7 13 0.19 0.00
 1 7 14 0.05 0.00
 1 7 15 -3.32 0.00
 1 8 10 -1.44 0.00
 1 8 11 -1.52 0.00
 1 8 12 -2.56 0.00
 1 8 13 -0.28 0.00
 1 8 14 1.22 0.00
 1 9 10 -3.21 0.00
 1 9 11 -1.64 0.00
 1 9 12 -0.94 0.00
 1 9 13 -0.60 0.00
 1 9 14 1.07 0.00
 1 10 10 -3.72 0.00
 1 10 11 -2.86 0.00
 1 10 12 -0.32 0.00
 1 10 13 -0.58 0.00
 1 11 9 0.54 0.00
 1 11 10 -2.12 0.00
 1 11 11 -3.01 0.00
 1 11 12 -0.60 0.00
 1 12 9 0.01 0.00
 1 12 10 -0.59 0.00
 1 12 11 -2.06 0.00
 1 13 9 -0.91 0.00
 -2 14 5 0.90 0.00
 -2 14 4 0.91 0.00
 -2 13 8 -2.97 0.00
 -2 13 7 -2.04 0.00
 -2 13 6 -1.39 0.00
 -2 13 5 -0.49 0.00
 -2 12 9 -1.89 0.00
 -2 12 8 -4.10 0.00
 -2 12 7 -3.94 0.00
 -2 12 6 -2.21 0.00
 -2 12 5 -1.54 0.00
 -2 11 10 -1.05 0.00
 -2 11 9 -1.47 0.00
 -2 11 8 -3.52 0.00
 -2 11 7 -4.88 0.00
 -2 11 6 -3.19 0.00
 -2 10 11 0.08 0.00
 -2 10 10 -1.01 0.00
 -2 10 9 -1.75 0.00
 -2 10 7 -3.65 0.00
 -2 10 6 -3.57 0.00
 -2 9 12 2.04 0.00
 -2 9 11 0.32 0.00
 -2 9 10 -0.76 0.00
 -2 9 9 -2.34 0.00
 -2 9 8 -2.94 0.00
 -2 9 7 -2.45 0.00
 -2 9 6 -2.65 0.00
 -2 8 13 4.25 0.00
 -2 8 12 3.55 0.00
 -2 8 11 1.22 0.00
 -2 8 10 -0.50 0.00
 -2 8 9 -2.53 0.00
 -2 8 8 -3.49 0.00
 -2 8 7 -2.76 0.00
 -2 8 6 -2.87 0.00
 -2 7 14 1.01 0.00
 -2 7 13 2.63 0.00
 -2 7 12 3.54 0.00
 -2 7 11 2.39 0.00
 -2 7 10 -0.01 0.00
 -2 7 9 -2.34 0.00
 -2 7 8 -2.94 0.00
 -2 7 7 -2.45 0.00
 -2 7 6 -3.19 0.00
 -2 6 14 1.27 0.00
 -2 6 13 0.47 0.00
 -2 6 12 1.78 0.00
 -2 6 11 2.68 0.00
 -2 6 10 0.39 0.00
 -2 6 9 -2.07 0.00
 -2 6 8 -2.10 0.00
 -2 6 7 -1.68 0.00
 -2 5 14 2.57 0.00
 -2 5 13 -0.61 0.00
 -2 5 12 -0.47 0.00
 -2 5 11 2.08 0.00
 -2 5 10 0.74 0.00
 -2 5 9 -1.63 0.00
 -2 5 8 -1.26 0.00
 -2 5 7 -1.51 0.00
 -2 5 5 0.94 0.00
 -2 4 14 3.68 0.00
 -2 4 13 0.13 0.00
 -2 4 12 -1.95 0.00
 -2 4 11 0.56 0.00
 -2 4 10 0.90 0.00
 -2 4 9 -0.96 0.00
 -2 4 8 -0.46 0.00
 -2 4 7 -0.76 0.00
 -2 3 13 1.45 0.00
 -2 3 12 -1.38 0.00
 -2 3 11 -0.93 0.00
 -2 3 10 0.31 0.00
 -2 3 9 -0.61 0.00
 -2 3 8 -0.67 0.00
 -2 3 7 0.19 0.00
 -2 2 13 1.18 0.00
 -2 2 12 0.02 0.00
 -2 2 11 -1.10 0.00
 -2 2 10 -0.30 0.00
 -2 2 9 -0.42 0.00
 -2 2 8 -1.90 0.00
 -2 2 7 -0.61 0.00
 -2 2 6 0.41 0.00
 -2 2 5 -1.87 0.00
 -2 2 4 -2.53 0.00
 -2 2 3 0.88 0.00
 -2 2 2 4.66 0.00
 -2 1 12 0.86 0.00
 -2 1 11 -0.42 0.00
 -2 1 10 -0.74 0.00
 -2 1 9 -0.03 0.00
 -2 1 8 -2.15 0.00
 -2 1 6 -0.02 0.00
 -2 1 5 -1.81 0.00
 -2 1 4 -3.35 0.00
 -2 1 3 -1.75 0.00
 -2 1 2 2.58 0.00
 -2 1 1 5.65 0.00
 -2 0 11 1.25 0.00
 -2 0 10 -0.64 0.00
 -2 0 9 -0.47 0.00
 -2 0 8 -1.56 0.00
 -2 0 6 -0.19 0.00
 -2 0 4 -3.36 0.00
 -2 0 3 -2.86 0.00
 -2 0 2 -1.72 0.00
 -2 0 1 6.53 0.00
 -2 -1 10 1.26 0.00
 -2 -1 9 -0.46 0.00
 -2 -2 9 1.23 0.00
 2 3 13 1.26 0.00
 2 4 13 1.20 0.00
 2 4 14 1.41 0.00
 2 5 13 0.50 0.00
 2 5 14 0.78 0.00
 2 5 15 1.28 0.00
 2 6 13 -0.03 0.00
 2 6 14 -0.94 0.00
 2 6 15 -0.67 0.00
 2 7 13 0.05 0.00
 2 7 14 -1.63 0.00
 2 7 15 -3.85 0.00
 2 8 13 0.13 0.00
 2 8 14 -0.74 0.00
 2 8 15 -4.74 0.00
 2 9 12 0.43 0.00
 2 9 13 0.43 0.00
 2 9 14 0.05 0.00
 2 10 12 0.87 0.00
 2 10 13 0.89 0.00
 2 11 11 -3.06 0.00
 2 11 12 -0.10 0.00
 2 12 11 -1.48 0.00
 -3 14 4 2.25 0.00
 -3 14 3 1.56 0.00
 -3 13 6 -1.22 0.00
 -3 13 5 1.16 0.00
 -3 13 4 2.01 0.00
 -3 13 3 0.98 0.00
 -3 12 8 -4.39 0.00
 -3 12 7 -5.31 0.00
 -3 12 6 -2.43 0.00
 -3 12 5 -0.40 0.00
 -3 12 4 0.25 0.00
 -3 11 10 -0.42 0.00
 -3 11 9 0.24 0.00
 -3 11 8 -3.31 0.00
 -3 11 7 -6.41 0.00
 -3 11 6 -3.74 0.00
 -3 11 5 -1.00 0.00
 -3 11 4 -1.12 0.00
 -3 10 11 -0.35 0.00
 -3 10 10 -0.31 0.00
 -3 10 9 0.88 0.00
 -3 10 8 -1.03 0.00
 -3 10 7 -5.04 0.00
 -3 10 6 -4.89 0.00
 -3 10 5 -2.18 0.00
 -3 10 4 -1.33 0.00
 -3 9 12 -0.68 0.00
 -3 9 11 -0.91 0.00
 -3 9 10 -0.40 0.00
 -3 9 9 0.22 0.00
 -3 9 8 -0.16 0.00
 -3 9 7 -2.41 0.00
 -3 9 6 -4.27 0.00
 -3 9 5 -3.51 0.00
 -3 8 12 0.35 0.00
 -3 8 11 -0.83 0.00
 -3 8 10 -0.49 0.00
 -3 8 9 -0.86 0.00
 -3 8 8 -1.38 0.00
 -3 8 7 -1.93 0.00
 -3 8 6 -3.85 0.00
 -3 8 5 -4.24 0.00
 -3 7 13 1.96 0.00
 -3 7 12 1.45 0.00
 -3 7 11 0.30 0.00
 -3 7 10 -0.04 0.00
 -3 7 9 -0.94 0.00
 -3 7 8 -2.07 0.00
 -3 7 7 -2.80 0.00
 -3 7 6 -4.93 0.00
 -3 7 5 -6.05 0.00
 -3 6 13 0.64 0.00
 -3 6 12 1.49 0.00
 -3 6 11 1.58 0.00
 -3 6 10 0.42 0.00
 -3 6 9 -0.58 0.00
 -3 6 8 -1.14 0.00
 -3 6 7 -2.38 0.00
 -3 6 6 -4.68 0.00
 -3 6 5 -6.53 0.00
 -3 5 14 0.56 0.00
 -3 5 13 -0.95 0.00
 -3 5 12 0.42 0.00
 -3 5 11 2.67 0.00
 -3 5 10 1.31 0.00
 -3 5 9 -0.46 0.00
 -3 5 8 -0.20 0.00
 -3 5 7 -1.31 0.00
 -3 5 6 -3.03 0.00
 -3 5 5 -3.64 0.00
 -3 4 14 1.29 0.00
 -3 4 13 -1.37 0.00
 -3 4 12 -1.49 0.00
 -3 4 11 2.15 0.00
 -3 4 10 2.51 0.00
 -3 4 9 0.43 0.00
 -3 4 8 0.53 0.00
 -3 4 7 -0.56 0.00
 -3 4 6 -2.31 0.00
 -3 3 13 0.09 0.00
 -3 3 12 -1.91 0.00
 -3 3 11 0.11 0.00
 -3 3 10 2.05 0.00
 -3 3 9 1.13 0.00
 -3 3 8 1.24 0.00
 -3 3 7 0.85 0.00
 -3 3 6 -1.65 0.00
 -3 3 5 -2.11 0.00
 -3 3 4 -1.38 0.00
 -3 2 13 1.25 0.00
 -3 2 12 -0.34 0.00
 -3 2 11 -0.88 0.00
 -3 2 10 0.70 0.00
 -3 2 9 0.57 0.00
 -3 2 8 0.18 0.00
 -3 2 7 1.74 0.00
 -3 2 6 0.63 0.00
 -3 2 5 -2.73 0.00
 -3 2 4 -3.64 0.00
 -3 2 3 -2.19 0.00
 -3 1 12 1.40 0.00
 -3 1 11 -0.59 0.00
 -3 1 10 -0.14 0.00
 -3 1 9 0.54 0.00
 -3 1 8 -1.39 0.00
 -3 1 7 0.13 0.00
 -3 1 6 2.30 0.00
 -3 1 5 -1.34 0.00
 -3 1 4 -4.63 0.00
 -3 1 3 -4.38 0.00
 -3 0 11 0.95 0.00
 -3 0 10 -0.69 0.00
 -3 0 9 0.68 0.00
 -3 0 8 -1.00 0.00
 -3 0 7 -1.40 0.00
 -3 0 6 2.03 0.00
 -3 0 5 0.12 0.00
 -3 0 4 -3.56 0.00
 -3 -1 10 0.50 0.00
 -3 -1 9 0.63 0.00
 -3 -1 8 -0.15 0.00
 -3 -1 7 -1.43 0.00
 -3 -2 9 1.82 0.00
 -3 -2 8 1.03 0.00
 -3 -3 8 2.35 0.00
 -3 -5 3 -2.55 0.00
 3 5 15 1.40 0.00
 3 6 15 0.85 0.00
 3 6 16 0.82 0.00
 3 7 15 -2.20 0.00
 3 8 15 -4.72 0.00
 3 9 14 -2.74 0.00
 -4 13 5 2.43 0.00
 -4 13 4 1.43 0.00
 -4 13 3 0.26 0.00
 -4 13 2 0.49 0.00
 -4 12 7 0.03 0.00
 -4 12 6 2.28 0.00
 -4 12 5 2.18 0.00
 -4 12 4 0.71 0.00
 -4 12 3 0.32 0.00
 -4 11 9 1.94 0.00
 -4 11 8 -0.60 0.00
 -4 11 7 -1.60 0.00
 -4 11 6 2.13 0.00
 -4 11 5 2.60 0.00
 -4 11 4 -0.42 0.00
 -4 11 3 -0.70 0.00
 -4 10 10 -0.28 0.00
 -4 10 9 2.67 0.00
 -4 10 8 0.60 0.00
 -4 10 7 -2.74 0.00
 -4 10 6 -0.15 0.00
 -4 10 5 1.98 0.00
 -4 10 4 -0.55 0.00
 -4 10 3 -1.52 0.00
 -4 9 11 -1.89 0.00
 -4 9 10 -0.62 0.00
 -4 9 9 2.18 0.00
 -4 9 8 2.02 0.00
 -4 9 7 -1.22 0.00
 -4 9 6 -1.83 0.00
 -4 9 5 -0.47 0.00
 -4 9 4 -1.25 0.00
 -4 9 3 -1.93 0.00
 -4 8 11 -1.86 0.00
 -4 8 10 -0.70 0.00
 -4 8 9 0.62 0.00
 -4 8 8 1.09 0.00
 -4 8 7 0.17 0.00
 -4 8 6 -1.48 0.00
 -4 8 5 -2.01 0.00
 -4 8 4 -1.96 0.00
 -4 7 12 -1.09 0.00
 -4 7 11 -0.96 0.00
 -4 7 10 -0.03 0.00
 -4 7 9 0.13 0.00
 -4 7 8 -0.58 0.00
 -4 7 6 -2.19 0.00
 -4 7 5 -3.08 0.00
 -4 7 4 -2.17 0.00
 -4 6 12 -0.36 0.00
 -4 6 11 0.11 0.00
 -4 6 10 0.25 0.00
 -4 6 9 0.38 0.00
 -4 6 8 -0.19 0.00
 -4 6 7 -1.77 0.00
 -4 6 6 -3.81 0.00
 -4 6 5 -5.02 0.00
 -4 6 4 -4.08 0.00
 -4 5 13 -0.82 0.00
 -4 5 12 0.35 0.00
 -4 5 11 1.74 0.00
 -4 5 10 0.48 0.00
 -4 5 9 -0.48 0.00
 -4 5 8 0.25 0.00
 -4 5 7 -0.66 0.00
 -4 5 6 -3.16 0.00
 -4 5 5 -5.20 0.00
 -4 5 4 -6.18 0.00
 -4 4 13 -1.13 0.00
 -4 4 12 -0.11 0.00
 -4 4 11 2.76 0.00
 -4 4 10 1.96 0.00
 -4 4 9 -0.65 0.00
 -4 4 8 -0.55 0.00
 -4 4 7 -0.60 0.00
 -4 4 6 -1.68 0.00
 -4 4 5 -2.78 0.00
 -4 4 4 -5.36 0.00
 -4 3 13 -0.55 0.00
 -4 3 12 -0.81 0.00
 -4 3 11 1.61 0.00
 -4 3 10 2.58 0.00
 -4 3 9 0.55 0.00
 -4 3 8 -0.22 0.00
 -4 3 7 -0.86 0.00
 -4 3 6 -1.91 0.00
 -4 3 5 -1.56 0.00
 -4 3 4 -3.07 0.00
 -4 2 13 0.04 0.00
 -4 2 12 -0.45 0.00
 -4 2 11 0.11 0.00
 -4 2 10 1.65 0.00
 -4 2 9 0.89 0.00
 -4 2 8 0.20 0.00
 -4 2 7 0.47 0.00
 -4 2 6 -1.15 0.00
 -4 2 5 -2.49 0.00
 -4 2 4 -2.86 0.00
 -4 1 12 0.08 0.00
 -4 1 11 -0.93 0.00
 -4 1 10 0.55 0.00
 -4 1 9 1.21 0.00
 -4 1 8 -0.38 0.00
 -4 1 7 0.65 0.00
 -4 1 6 1.28 0.00
 -4 1 5 -1.82 0.00
 -4 1 4 -3.82 0.00
 -4 0 11 -1.01 0.00
 -4 0 10 -1.08 0.00
 -4 0 9 1.47 0.00
 -4 0 8 0.25 0.00
 -4 0 7 -0.35 0.00
 -4 0 6 2.11 0.00
 -4 0 5 0.31 0.00
 -4 -1 10 -1.26 0.00
 -4 -1 9 0.67 0.00
 -4 -1 8 1.01 0.00
 -4 -1 7 -0.49 0.00
 -4 -1 6 1.72 0.00
 -4 -2 9 1.20 0.00
 -4 -2 8 1.48 0.00
 -4 -2 7 -0.76 0.00
 -4 -2 6 0.80 0.00
 -4 -3 8 2.72 0.00
 -4 -3 7 -0.19 0.00
 -5 13 3 -2.21 0.00
 -5 13 2 -1.83 0.00
 -5 12 6 2.13 0.00
 -5 12 5 -0.27 0.00
 -5 12 4 -1.20 0.00
 -5 12 3 -0.82 0.00
 -5 12 2 -0.85 0.00
 -5 12 1 -1.05 0.00
 -5 11 7 2.97 0.00
 -5 11 6 4.70 0.00
 -5 11 5 1.43 0.00
 -5 11 4 -1.82 0.00
 -5 11 3 -0.28 0.00
 -5 11 2 1.03 0.00
 -5 10 8 0.78 0.00
 -5 10 7 0.27 0.00
 -5 10 6 4.08 0.00
 -5 10 5 3.47 0.00
 -5 10 4 -0.98 0.00
 -5 10 3 -0.45 0.00
 -5 10 2 1.91 0.00
 -5 9 10 0.24 0.00
 -5 9 9 2.80 0.00
 -5 9 8 1.59 0.00
 -5 9 7 -0.76 0.00
 -5 9 6 0.97 0.00
 -5 9 5 2.22 0.00
 -5 9 4 -0.12 0.00
 -5 9 3 -0.10 0.00
 -5 9 2 2.09 0.00
 -5 8 10 0.63 0.00
 -5 8 9 2.21 0.00
 -5 8 8 1.97 0.00
 -5 8 7 0.69 0.00
 -5 8 6 0.30 0.00
 -5 8 5 -0.01 0.00
 -5 8 4 -0.97 0.00
 -5 8 3 -0.50 0.00
 -5 8 2 1.40 0.00
 -5 7 11 1.17 0.00
 -5 7 10 1.68 0.00
 -5 7 9 2.17 0.00
 -5 7 8 1.40 0.00
 -5 7 7 0.93 0.00
 -5 7 6 1.03 0.00
 -5 7 5 0.11 0.00
 -5 7 4 -1.16 0.00
 -5 7 3 -1.23 0.00
 -5 6 12 0.41 0.00
 -5 6 11 2.02 0.00
 -5 6 10 2.15 0.00
 -5 6 9 2.59 0.00
 -5 6 8 2.14 0.00
 -5 6 7 0.60 0.00
 -5 6 6 -0.06 0.00
 -5 6 5 -0.04 0.00
 -5 6 4 -0.53 0.00
 -5 6 3 -1.21 0.00
 -5 5 12 -0.03 0.00
 -5 5 11 2.39 0.00
 -5 5 10 1.61 0.00
 -5 5 9 1.29 0.00
 -5 5 8 2.69 0.00
 -5 5 7 2.07 0.00
 -5 5 6 -0.23 0.00
 -5 5 5 -1.50 0.00
 -5 5 4 -1.66 0.00
 -5 5 3 -1.78 0.00
 -5 4 12 -0.69 0.00
 -5 4 11 2.43 0.00
 -5 4 10 1.84 0.00
 -5 4 9 -0.27 0.00
 -5 4 8 0.80 0.00
 -5 4 7 2.21 0.00
 -5 4 6 1.59 0.00
 -5 4 5 -0.57 0.00
 -5 4 4 -3.12 0.00
 -5 4 3 -3.73 0.00
 -5 3 12 -1.27 0.00
 -5 3 11 1.14 0.00
 -5 3 10 2.03 0.00
 -5 3 9 0.12 0.00
 -5 3 8 -0.38 0.00
 -5 3 7 0.27 0.00
 -5 3 6 1.24 0.00
 -5 3 5 1.58 0.00
 -5 3 4 -1.62 0.00
 -5 3 3 -4.72 0.00
 -5 3 2 -3.88 0.00
 -5 2 13 -0.43 0.00
 -5 2 12 -0.97 0.00
 -5 2 11 -0.27 0.00
 -5 2 10 1.17 0.00
 -5 2 9 0.65 0.00
 -5 2 8 0.13 0.00
 -5 2 7 0.11 0.00
 -5 2 6 -0.10 0.00
 -5 2 5 0.92 0.00
 -5 2 4 0.30 0.00
 -5 2 2 -4.37 0.00
 -5 1 12 -1.07 0.00
 -5 1 11 -1.29 0.00
 -5 1 10 0.41 0.00
 -5 1 9 1.21 0.00
 -5 1 8 0.42 0.00
 -5 1 7 0.73 0.00
 -5 1 6 0.78 0.00
 -5 1 5 0.01 0.00
 -5 1 4 -0.21 0.00
 -5 0 11 -2.39 0.00
 -5 0 10 -1.14 0.00
 -5 0 9 1.67 0.00
 -5 0 8 1.54 0.00
 -5 0 7 0.82 0.00
 -5 0 6 1.63 0.00
 -5 0 5 0.97 0.00
 -5 0 4 -0.47 0.00
 -5 -1 10 -2.37 0.00
 -5 -1 9 0.34 0.00
 -5 -1 8 2.08 0.00
 -5 -1 7 1.52 0.00
 -5 -1 6 1.90 0.00
 -5 -1 5 1.74 0.00
 -5 -2 9 -0.09 0.00
 -5 -2 8 1.18 0.00
 -5 -2 7 1.12 0.00
 -5 -2 6 2.03 0.00
 -5 -2 5 2.16 0.00
 5 2 0 -4.14 0.00
 -5 -3 8 1.78 0.00
 -5 -3 7 0.47 0.00
 -5 -3 6 1.09 0.00
 -5 -4 7 1.29 0.00
 -5 -4 6 0.70 0.00
 -5 -5 6 0.87 0.00
 -6 12 3 -1.30 0.00
 -6 12 2 -2.38 0.00
 -6 12 1 -1.57 0.00
 -6 11 5 -2.69 0.00
 -6 11 4 -2.68 0.00
 -6 11 3 0.16 0.00
 -6 11 2 -0.25 0.00
 -6 11 1 -2.07 0.00
 -6 11 0 -0.66 0.00
 -6 10 7 2.38 0.00
 -6 10 6 3.57 0.00
 -6 10 5 0.33 0.00
 -6 10 4 -2.56 0.00
 -6 10 3 0.12 0.00
 -6 10 2 1.64 0.00
 -6 10 1 -1.20 0.00
 -6 10 0 -1.53 0.00
 -6 9 8 1.95 0.00
 -6 9 7 1.28 0.00
 -6 9 6 2.51 0.00
 -6 9 5 1.80 0.00
 -6 9 4 -0.41 0.00
 -6 9 3 0.81 0.00
 -6 9 2 2.38 0.00
 -6 9 1 -0.28 0.00
 -6 8 9 3.17 0.00
 -6 8 8 2.37 0.00
 -6 8 7 1.78 0.00
 -6 8 6 1.59 0.00
 -6 8 5 0.47 0.00
 -6 8 4 -0.10 0.00
 -6 8 3 1.72 0.00
 -6 8 2 2.93 0.00
 -6 8 1 0.56 0.00
 -6 7 10 2.29 0.00
 -6 7 9 3.21 0.00
 -6 7 8 2.35 0.00
 -6 7 7 1.96 0.00
 -6 7 6 2.23 0.00
 -6 7 5 0.49 0.00
 -6 7 4 -1.17 0.00
 -6 7 3 0.51 0.00
 -6 7 2 2.54 0.00
 -6 7 1 1.19 0.00
 -6 6 10 2.24 0.00
 -6 6 9 3.12 0.00
 -6 6 8 3.07 0.00
 -6 6 7 1.53 0.00
 -6 6 6 1.45 0.00
 -6 6 5 1.42 0.00
 -6 6 4 -0.40 0.00
 -6 6 3 -1.18 0.00
 -6 6 2 0.49 0.00
 -6 5 11 3.87 0.00
 -6 5 10 2.15 0.00
 -6 5 9 1.93 0.00
 -6 5 8 3.69 0.00
 -6 5 7 2.71 0.00
 -6 5 6 0.56 0.00
 -6 5 5 0.24 0.00
 -6 5 4 0.20 0.00
 -6 5 3 -1.11 0.00
 -6 5 2 -1.43 0.00
 -6 4 11 3.76 0.00
 -6 4 10 2.86 0.00
 -6 4 9 0.84 0.00
 -6 4 8 2.33 0.00
 -6 4 7 3.48 0.00
 -6 4 6 2.09 0.00
 -6 4 5 -0.04 0.00
 -6 4 4 -1.22 0.00
 -6 4 3 -1.44 0.00
 -6 4 2 -1.62 0.00
 -6 3 11 2.05 0.00
 -6 3 10 3.33 0.00
 -6 3 9 1.68 0.00
 -6 3 8 1.42 0.00
 -6 3 7 2.16 0.00
 -6 3 6 2.70 0.00
 -6 3 5 2.08 0.00
 -6 3 4 -0.76 0.00
 -6 3 3 -2.77 0.00
 -6 3 2 -2.08 0.00
 -6 2 12 -1.10 0.00
 -6 2 11 0.14 0.00
 -6 2 10 2.21 0.00
 -6 2 9 2.48 0.00
 -6 2 8 2.26 0.00
 -6 2 7 1.94 0.00
 -6 2 6 1.75 0.00
 -6 2 5 2.52 0.00
 -6 2 4 1.57 0.00
 -6 2 3 -1.68 0.00
 -6 2 2 -3.08 0.00
 -6 1 12 -0.95 0.00
 -6 1 11 -0.65 0.00
 -6 1 10 1.04 0.00
 -6 1 9 2.41 0.00
 -6 1 8 2.65 0.00
 -6 1 7 2.56 0.00
 -6 1 6 2.10 0.00
 -6 1 5 1.82 0.00
 -6 1 4 1.88 0.00
 -6 1 3 0.53 0.00
 -6 0 11 -1.67 0.00
 -6 0 10 -0.18 0.00
 -6 0 9 2.13 0.00
 -6 0 8 3.12 0.00
 -6 0 7 2.64 0.00
 -6 0 6 2.31 0.00
 -6 0 5 2.06 0.00
 -6 0 4 1.39 0.00
 -6 0 3 0.65 0.00
 -6 -1 10 -1.74 0.00
 -6 -1 9 0.28 0.00
 -6 -1 8 2.86 0.00
 -6 -1 7 3.48 0.00
 -6 -1 6 2.33 0.00
 -6 -1 5 1.72 0.00
 -6 -1 4 1.47 0.00
 -6 -2 9 -1.31 0.00
 -6 -2 8 0.44 0.00
 -6 -2 7 2.93 0.00
 -6 -2 6 3.20 0.00
 -6 -2 5 1.51 0.00
 -6 -2 4 1.10 0.00
 -6 -3 8 -0.59 0.00
 -6 -3 7 0.78 0.00
 -6 -3 6 2.78 0.00
 -6 -3 5 1.87 0.00
 -6 -3 4 0.50 0.00
 -6 -4 7 0.28 0.00
 -6 -4 6 1.79 0.00
 -6 -4 5 2.00 0.00
 -6 -5 6 1.40 0.00
 -6 -5 5 2.14 0.00
 -6 -6 5 1.30 0.00
 -7 11 3 0.37 0.00
 -7 11 2 -1.84 0.00
 -7 11 1 -2.11 0.00
 -7 11 0 1.05 0.00
 -7 10 5 -1.69 0.00
 -7 10 4 -1.76 0.00
 -7 10 3 0.46 0.00
 -7 10 2 -0.25 0.00
 -7 10 1 -2.78 0.00
 -7 10 0 -1.29 0.00
 7 -10 1 1.66 0.00
 -7 9 6 1.56 0.00
 -7 9 5 -0.14 0.00
 -7 9 4 -0.56 0.00
 -7 9 3 0.61 0.00
 -7 9 2 0.51 0.00
 -7 9 1 -2.06 0.00
 -7 9 0 -2.08 0.00
 7 -9 1 0.71 0.00
 -7 8 7 3.64 0.00
 -7 8 6 2.02 0.00
 -7 8 5 -0.23 0.00
 -7 8 4 0.29 0.00
 -7 8 3 1.85 0.00
 -7 8 2 1.13 0.00
 -7 8 1 -1.49 0.00
 -7 8 0 -1.54 0.00
 -7 7 8 1.91 0.00
 -7 7 7 2.87 0.00
 -7 7 6 2.51 0.00
 -7 7 5 -0.10 0.00
 -7 7 4 -0.81 0.00
 -7 7 3 1.43 0.00
 -7 7 2 1.91 0.00
 -7 7 1 -0.87 0.00
 -7 7 0 -1.21 0.00
 -7 6 9 1.08 0.00
 -7 6 8 1.87 0.00
 -7 6 7 1.28 0.00
 -7 6 6 1.26 0.00
 -7 6 5 0.60 0.00
 -7 6 4 -1.08 0.00
 -7 6 3 -0.92 0.00
 -7 6 2 0.69 0.00
 -7 6 1 -0.11 0.00
 -7 6 0 -0.91 0.00
 -7 5 9 -0.44 0.00
 -7 5 8 1.84 0.00
 -7 5 7 1.06 0.00
 -7 5 6 -0.56 0.00
 -7 5 5 -0.44 0.00
 -7 5 4 -0.55 0.00
 -7 5 3 -1.69 0.00
 -7 5 2 -1.75 0.00
 -7 5 1 -1.07 0.00
 -7 4 10 0.88 0.00
 -7 4 9 -1.04 0.00
 -7 4 8 0.83 0.00
 -7 4 7 1.39 0.00
 -7 4 6 -0.21 0.00
 -7 4 5 -1.39 0.00
 -7 4 4 -1.50 0.00
 -7 4 3 -1.34 0.00
 -7 4 2 -1.79 0.00
 -7 4 1 -2.40 0.00
 -7 3 10 2.96 0.00
 -7 3 9 0.76 0.00
 -7 3 8 0.70 0.00
 -7 3 7 0.96 0.00
 -7 3 6 0.59 0.00
 -7 3 5 -0.10 0.00
 -7 3 4 -1.50 0.00
 -7 3 2 -0.94 0.00
 -7 3 1 -0.84 0.00
 -7 2 10 3.13 0.00
 -7 2 9 2.73 0.00
 -7 2 8 2.24 0.00
 -7 2 7 1.65 0.00
 -7 2 6 0.92 0.00
 -7 2 5 0.85 0.00
 -7 2 4 0.37 0.00
 -7 2 3 -1.26 0.00
 -7 2 2 -1.45 0.00
 -7 2 1 0.76 0.00
 -7 1 10 2.34 0.00
 -7 1 9 3.04 0.00
 -7 1 8 2.97 0.00
 -7 1 7 2.62 0.00
 -7 1 6 2.23 0.00
 -7 1 5 1.50 0.00
 -7 1 4 1.23 0.00
 -7 1 3 0.70 0.00
 -7 1 2 -0.90 0.00
 -7 0 10 1.95 0.00
 -7 0 9 2.72 0.00
 -7 0 8 3.03 0.00
 -7 0 7 2.22 0.00
 -7 0 6 2.23 0.00
 -7 0 5 2.59 0.00
 -7 0 4 1.79 0.00
 -7 0 3 1.28 0.00
 -7 0 2 0.65 0.00
 -7 -1 10 1.36 0.00
 -7 -1 9 1.50 0.00
 -7 -1 8 2.74 0.00
 -7 -1 7 2.58 0.00
 -7 -1 6 1.07 0.00
 -7 -1 5 1.62 0.00
 -7 -1 4 2.33 0.00
 -7 -1 3 1.36 0.00
 -7 -1 2 1.02 0.00
 -7 -1 1 1.26 0.00
 7 1 9 0.39 0.00
 -7 -2 9 -0.07 0.00
 -7 -2 8 0.56 0.00
 -7 -2 7 2.63 0.00
 -7 -2 6 1.59 0.00
 -7 -2 5 0.06 0.00
 -7 -2 4 1.28 0.00
 -7 -2 3 1.60 0.00
 -7 -3 8 -1.35 0.00
 -7 -3 7 0.65 0.00
 -7 -3 6 1.89 0.00
 -7 -3 5 0.07 0.00
 -7 -3 4 -0.05 0.00
 -7 -3 3 1.46 0.00
 -7 -4 7 -0.73 0.00
 -7 -4 6 1.02 0.00
 -7 -4 5 0.39 0.00
 -7 -4 4 -0.55 0.00
 -7 -4 3 0.80 0.00
 -7 -5 6 0.35 0.00
 -7 -5 5 0.66 0.00
 -7 -5 4 -0.07 0.00
 -7 -6 5 0.28 0.00
 -7 -6 4 0.45 0.00
 -7 -7 4 -0.34 0.00
 -8 10 2 -1.64 0.00
 -8 10 1 -1.82 0.00
 -8 10 0 1.43 0.00
 8 -10 1 4.37 0.00
 -8 9 4 0.54 0.00
 -8 9 3 0.22 0.00
 -8 9 2 -1.01 0.00
 -8 9 1 -2.07 0.00
 -8 9 0 -0.67 0.00
 8 -9 1 2.89 0.00
 8 -9 2 4.32 0.00
 -8 8 6 0.28 0.00
 -8 8 5 -1.11 0.00
 -8 8 4 0.96 0.00
 -8 8 3 1.35 0.00
 -8 8 2 -0.32 0.00
 -8 8 1 -1.45 0.00
 -8 8 0 -0.72 0.00
 8 -8 1 1.60 0.00
 8 -8 2 3.29 0.00
 -8 7 7 2.72 0.00
 -8 7 6 1.25 0.00
 -8 7 5 -0.87 0.00
 -8 7 4 0.08 0.00
 -8 7 3 1.48 0.00
 -8 7 2 0.70 0.00
 -8 7 1 -0.95 0.00
 -8 7 0 -0.42 0.00
 8 -7 1 1.67 0.00
 -8 6 7 0.95 0.00
 -8 6 6 0.45 0.00
 -8 6 5 -0.21 0.00
 -8 6 4 -0.50 0.00
 -8 6 3 -0.07 0.00
 -8 6 2 0.71 0.00
 -8 6 1 -0.03 0.00
 -8 6 0 -0.38 0.00
 8 -6 1 1.26 0.00
 -8 5 8 0.56 0.00
 -8 5 7 -0.08 0.00
 -8 5 6 -1.14 0.00
 -8 5 5 -0.73 0.00
 -8 5 4 -0.46 0.00
 -8 5 3 -0.94 0.00
 -8 5 2 -0.57 0.00
 -8 5 1 -0.17 0.00
 -8 5 0 0.28 0.00
 8 -5 1 1.14 0.00
 -8 4 8 -0.37 0.00
 -8 4 7 -0.67 0.00
 -8 4 6 -1.62 0.00
 -8 4 5 -1.38 0.00
 -8 4 4 -1.05 0.00
 -8 4 3 -0.63 0.00
 -8 4 2 -0.23 0.00
 -8 4 1 -1.01 0.00
 -8 4 0 -0.41 0.00
 -8 3 9 -0.97 0.00
 -8 3 8 -0.60 0.00
 -8 3 7 -1.29 0.00
 -8 3 6 -1.85 0.00
 -8 3 4 -0.98 0.00
 -8 3 3 -0.66 0.00
 -8 3 2 1.27 0.00
 -8 3 1 0.95 0.00
 -8 3 0 -1.01 0.00
 -8 2 9 0.70 0.00
 -8 2 8 0.41 0.00
 -8 2 7 -0.59 0.00
 -8 2 6 -1.70 0.00
 -8 2 5 -1.21 0.00
 -8 2 4 -0.17 0.00
 -8 2 3 -0.02 0.00
 -8 2 2 1.41 0.00
 -8 2 1 3.76 0.00
 -8 2 0 2.22 0.00
 -8 1 9 1.22 0.00
 -8 1 8 0.68 0.00
 -8 1 7 0.23 0.00
 -8 1 6 0.04 0.00
 -8 1 5 -0.69 0.00
 -8 1 4 -0.41 0.00
 -8 1 3 0.76 0.00
 -8 1 2 1.21 0.00
 -8 1 1 3.74 0.00
 -8 1 0 5.56 0.00
 -8 0 9 1.31 0.00
 -8 0 8 0.22 0.00
 -8 0 7 -0.88 0.00
 -8 0 6 0.36 0.00
 -8 0 5 1.38 0.00
 -8 0 4 0.31 0.00
 -8 0 3 0.37 0.00
 -8 0 2 1.01 0.00
 -8 0 1 2.32 0.00
 8 0 0 4.77 0.00
 -8 -1 9 1.54 0.00
 -8 -1 8 0.38 0.00
 -8 -1 7 -1.53 0.00
 -8 -1 6 -1.76 0.00
 -8 -1 5 1.10 0.00
 -8 -1 4 2.16 0.00
 -8 -1 3 0.84 0.00
 -8 -1 2 0.49 0.00
 -8 -1 1 1.27 0.00
 -8 -2 9 1.30 0.00
 -8 -2 8 0.20 0.00
 -8 -2 7 -0.76 0.00
 -8 -2 6 -2.50 0.00
 -8 -2 5 -1.25 0.00
 -8 -2 4 1.90 0.00
 -8 -2 3 1.99 0.00
 -8 -2 2 0.68 0.00
 -8 -2 1 0.69 0.00
 -8 -3 8 -0.61 0.00
 -8 -3 7 -0.53 0.00
 -8 -3 5 -2.27 0.00
 -8 -3 4 0.45 0.00
 -8 -3 3 2.15 0.00
 -8 -3 2 1.24 0.00
 -8 -4 7 -0.85 0.00
 -8 -4 6 -1.08 0.00
 -8 -4 5 -2.08 0.00
 -8 -4 4 -0.29 0.00
 -8 -4 3 1.77 0.00
 -8 -4 2 1.31 0.00
 -8 -5 6 -0.88 0.00
 -8 -5 5 -1.39 0.00
 -8 -5 4 -0.09 0.00
 -8 -5 3 1.79 0.00
 -8 -5 2 0.76 0.00
 -8 -6 5 -1.29 0.00
 -8 -6 4 0.33 0.00
 -8 -6 3 2.71 0.00
 -8 -7 4 -0.66 0.00
 -8 -7 3 2.51 0.00
 -8 -8 3 0.36 0.00
 -9 9 1 -1.59 0.00
 -9 9 0 0.21 0.00
 9 -9 1 3.21 0.00
 9 -9 2 4.77 0.00
 -9 8 3 0.50 0.00
 -9 8 2 -1.33 0.00
 -9 8 1 -1.45 0.00
 -9 8 0 -0.99 0.00
 9 -8 1 0.96 0.00
 9 -8 2 3.98 0.00
 9 -8 3 3.98 0.00
 -9 7 4 1.16 0.00
 -9 7 3 0.92 0.00
 -9 7 2 -0.27 0.00
 -9 7 1 -0.74 0.00
 -9 7 0 -1.01 0.00
 9 -7 1 -0.23 0.00
 9 -7 2 1.98 0.00
 9 -7 3 3.28 0.00
 -9 6 5 -0.51 0.00
 -9 6 4 0.67 0.00
 -9 6 3 0.41 0.00
 -9 6 2 0.48 0.00
 -9 6 1 0.35 0.00
 -9 6 0 -0.93 0.00
 9 -6 1 -1.04 0.00
 9 -6 2 0.55 0.00
 -9 5 6 -1.58 0.00
 -9 5 5 -0.82 0.00
 -9 5 4 0.05 0.00
 -9 5 3 -0.12 0.00
 -9 5 2 0.56 0.00
 -9 5 1 0.98 0.00
 -9 5 0 -0.09 0.00
 9 -5 1 -1.27 0.00
 9 -5 2 -1.48 0.00
 -9 4 6 -1.66 0.00
 -9 4 5 -0.71 0.00
 -9 4 4 -0.88 0.00
 -9 4 3 -0.75 0.00
 -9 4 2 0.85 0.00
 -9 4 1 0.60 0.00
 -9 4 0 -0.17 0.00
 9 -4 1 0.07 0.00
 9 -4 2 -1.97 0.00
 -9 3 7 -1.92 0.00
 -9 3 6 -2.33 0.00
 -9 3 5 -0.23 0.00
 -9 3 4 -0.56 0.00
 -9 3 3 -1.43 0.00
 -9 3 2 1.03 0.00
 -9 3 1 1.22 0.00
 -9 3 0 -1.30 0.00
 9 -3 1 -0.36 0.00
 -9 2 7 -1.44 0.00
 -9 2 6 -2.94 0.00
 -9 2 5 -1.22 0.00
 -9 2 4 0.24 0.00
 -9 2 3 -0.63 0.00
 -9 2 2 0.49 0.00
 -9 2 1 2.44 0.00
 -9 2 0 0.02 0.00
 9 -2 1 -2.13 0.00
 -9 1 7 -0.73 0.00
 -9 1 6 -1.61 0.00
 -9 1 5 -1.88 0.00
 -9 1 4 -0.79 0.00
 -9 1 3 0.23 0.00
 -9 1 2 0.41 0.00
 -9 1 1 2.40 0.00
 -9 1 0 2.77 0.00
 9 -1 1 -1.05 0.00
 -9 0 7 -1.82 0.00
 -9 0 6 -0.61 0.00
 -9 0 5 -0.10 0.00
 -9 0 4 -1.15 0.00
 -9 0 3 -0.75 0.00
 -9 0 2 -0.04 0.00
 -9 0 1 1.52 0.00
 9 0 0 3.61 0.00
 9 0 1 1.39 0.00
 -9 -1 7 -3.43 0.00
 -9 -1 6 -2.10 0.00
 -9 -1 5 0.87 0.00
 -9 -1 4 0.67 0.00
 -9 -1 3 -0.98 0.00
 -9 -1 2 -1.28 0.00
 -9 -1 1 0.05 0.00
 9 1 0 2.34 0.00
 -9 -2 7 -3.56 0.00
 -9 -2 6 -3.79 0.00
 -9 -2 5 -0.53 0.00
 -9 -2 4 1.58 0.00
 -9 -2 3 0.15 0.00
 -9 -2 2 -1.45 0.00
 -9 -2 1 -1.16 0.00
 9 2 0 0.31 0.00
 -9 -3 7 -2.32 0.00
 -9 -3 6 -4.08 0.00
 -9 -3 5 -2.23 0.00
 -9 -3 4 1.08 0.00
 -9 -3 3 0.82 0.00
 -9 -3 2 -0.94 0.00
 -9 -3 1 -1.22 0.00
 9 3 0 -1.08 0.00
 -9 -4 6 -2.99 0.00
 -9 -4 5 -3.28 0.00
 -9 -4 4 0.17 0.00
 -9 -4 3 1.10 0.00
 -9 -4 2 -0.77 0.00
 -9 -4 1 -0.82 0.00
 -9 -5 6 -1.32 0.00
 -9 -5 5 -2.82 0.00
 -9 -5 4 -0.54 0.00
 -9 -5 3 1.18 0.00
 -9 -5 2 -0.97 0.00
 -9 -5 1 -1.23 0.00
 -9 -6 5 -1.68 0.00
 -9 -6 4 -0.15 0.00
 -9 -6 3 1.80 0.00
 -9 -6 2 -0.51 0.00
 -9 -6 1 -2.65 0.00
 -9 -7 4 -0.12 0.00
 -9 -7 3 2.43 0.00
 -9 -7 2 1.51 0.00
 -9 -7 1 -2.25 0.00
 -9 -8 3 1.35 0.00
 -9 -8 2 2.60 0.00
 -10 7 1 -0.96 0.00
 -10 7 0 -1.60 0.00
 10 -7 1 -1.60 0.00
 10 -7 2 0.09 0.00
 10 -7 3 0.64 0.00
 -10 6 2 -0.57 0.00
 -10 6 1 -0.42 0.00
 -10 6 0 -2.08 0.00
 10 -6 1 -2.66 0.00
 10 -6 2 -0.75 0.00
 10 -6 3 0.16 0.00
 10 -6 4 -0.90 0.00
 -10 5 3 1.22 0.00
 -10 5 2 0.82 0.00
 -10 5 1 0.36 0.00
 -10 5 0 -2.01 0.00
 10 -5 1 -3.57 0.00
 10 -5 2 -2.31 0.00
 10 -5 3 0.09 0.00
 10 -5 4 0.05 0.00
 -10 4 4 1.11 0.00
 -10 4 3 0.89 0.00
 -10 4 2 2.29 0.00
 -10 4 1 1.16 0.00
 -10 4 0 -1.76 0.00
 10 -4 1 -2.90 0.00
 10 -4 2 -3.60 0.00
 10 -4 3 -1.90 0.00
 -10 3 5 1.73 0.00
 -10 3 4 0.77 0.00
 -10 3 3 -0.92 0.00
 -10 3 2 1.74 0.00
 -10 3 1 1.79 0.00
 -10 3 0 -2.02 0.00
 10 -3 1 -2.45 0.00
 10 -3 2 -2.71 0.00
 10 -3 3 -3.33 0.00
 -10 2 5 0.73 0.00
 -10 2 4 1.29 0.00
 -10 2 3 -1.41 0.00
 -10 2 2 -0.74 0.00
 -10 2 1 1.03 0.00
 -10 2 0 -1.65 0.00
 10 -2 1 -3.30 0.00
 10 -2 2 -2.53 0.00
 10 -2 3 -2.48 0.00
 -10 1 5 -0.50 0.00
 -10 1 4 0.63 0.00
 -10 1 3 -0.52 0.00
 -10 1 2 -2.02 0.00
 -10 1 1 -0.99 0.00
 -10 1 0 -1.06 0.00
 10 -1 1 -3.30 0.00
 10 -1 2 -3.71 0.00
 -10 0 5 0.19 0.00
 -10 0 4 -0.03 0.00
 -10 0 3 -0.41 0.00
 -10 0 2 -1.84 0.00
 -10 0 1 -2.05 0.00
 10 0 0 -0.95 0.00
 10 0 1 -2.38 0.00
 10 0 2 -3.97 0.00
 -10 -1 5 1.32 0.00
 -10 -1 4 0.69 0.00
 -10 -1 3 -0.25 0.00
 -10 -1 2 -1.44 0.00
 -10 -1 1 -2.02 0.00
 10 1 0 -0.81 0.00
 10 1 1 -1.44 0.00
 -10 -2 5 1.64 0.00
 -10 -2 4 1.30 0.00
 -10 -2 3 0.09 0.00
 -10 -2 2 -0.58 0.00
 -10 -2 1 -1.15 0.00
 10 2 0 -0.63 0.00
 10 2 1 -0.71 0.00
 -10 -3 5 1.25 0.00
 -10 -3 4 1.85 0.00
 -10 -3 3 -0.02 0.00
 -10 -3 2 -0.40 0.00
 -10 -3 1 0.26 0.00
 10 3 0 0.08 0.00
 10 3 1 -0.22 0.00
 -10 -4 4 1.99 0.00
 -10 -4 3 0.62 0.00
 -10 -4 2 -0.86 0.00
 -10 -4 1 0.84 0.00
 10 4 0 1.25 0.00
 10 4 1 0.11 0.00
 -10 -5 3 1.20 0.00
 -10 -5 2 -0.80 0.00
 -10 -5 1 0.63 0.00
 10 5 0 2.29 0.00
 -10 -6 3 1.11 0.00
 -10 -6 2 -0.60 0.00
 -10 -6 1 -0.15 0.00
 10 6 0 2.26 0.00
 -10 -7 1 -0.63 0.00
 10 7 0 0.67 0.00
 10 8 0 -0.35 0.00
 11 -5 1 -1.40 0.00
 11 -5 2 0.38 0.00
 11 -5 3 0.99 0.00
 11 -5 4 -0.18 0.00
 11 -5 5 -0.13 0.00
 -11 4 0 -2.21 0.00
 11 -4 1 -1.84 0.00
 11 -4 2 -0.61 0.00
 11 -4 3 0.51 0.00
 11 -4 4 1.22 0.00
 11 -4 5 0.34 0.00
 -11 3 1 1.97 0.00
 -11 3 0 -2.18 0.00
 11 -3 1 -1.98 0.00
 11 -3 2 -0.79 0.00
 11 -3 3 -0.81 0.00
 11 -3 4 1.02 0.00
 -11 2 2 1.22 0.00
 -11 2 1 2.29 0.00
 -11 2 0 -1.02 0.00
 11 -2 1 -2.11 0.00
 11 -2 2 -0.94 0.00
 11 -2 3 -0.93 0.00
 11 -2 4 0.40 0.00
 -11 1 2 -1.24 0.00
 -11 1 1 0.18 0.00
 -11 1 0 -0.35 0.00
 11 -1 1 -1.60 0.00
 11 -1 2 -1.49 0.00
 11 -1 3 -0.78 0.00
 11 -1 4 0.59 0.00
 -11 0 2 -2.30 0.00
 -11 0 1 -2.16 0.00
 11 0 0 -1.13 0.00
 11 0 1 -1.34 0.00
 11 0 2 -1.69 0.00
 11 0 3 -0.54 0.00
 -11 -1 2 -1.32 0.00
 -11 -1 1 -3.01 0.00
 11 1 0 -2.30 0.00
 11 1 1 -1.89 0.00
 11 1 2 -2.10 0.00
 11 1 3 -0.31 0.00
 -11 -2 2 1.34 0.00
 -11 -2 1 -1.27 0.00
 11 2 0 -2.69 0.00
 11 2 1 -2.82 0.00
 11 2 2 -2.91 0.00
 11 2 3 -0.97 0.00
 -11 -3 2 2.51 0.00
 -11 -3 1 2.08 0.00
 11 3 0 -0.90 0.00
 11 3 1 -3.21 0.00
 11 3 2 -3.72 0.00
 -11 -4 1 3.63 0.00
 11 4 0 2.06 0.00
 11 4 1 -1.98 0.00
 11 4 2 -3.72 0.00
 11 5 0 3.81 0.00
 11 5 1 0.01 0.00
 11 5 2 -2.70 0.00
 11 6 2 -1.12 0.00
 12 0 4 0.83 0.00
 12 0 5 0.21 0.00
 12 1 4 1.34 0.00
 0 0 12 -0.37 0.00
 0 0 13 1.26 0.00
 0 0 14 3.11 0.00
 0 0 15 1.33 0.00
 0 0 16 -0.64 0.00
 0 -1 16 -0.75 0.00
 0 -1 15 -0.32 0.00
 0 -1 14 1.49 0.00
 0 -1 13 1.19 0.00
 0 -1 12 -0.44 0.00
 0 -1 1 28.11 0.00
 0 1 13 0.04 0.00
 0 1 14 2.78 0.00
 0 1 15 3.04 0.00
 0 1 16 0.70 0.00
 0 -2 16 -0.61 0.00
 0 -2 15 -0.63 0.00
 0 -2 14 -0.32 0.00
 0 -2 13 -0.19 0.00
 0 -2 12 -0.79 0.00
 0 2 14 0.94 0.00
 0 2 15 2.63 0.00
 0 2 16 1.76 0.00
 0 -3 15 -0.45 0.00
 0 -3 14 -1.31 0.00
 0 -3 13 -2.00 0.00
 0 -3 12 -1.75 0.00
 0 -3 4 -2.56 0.00
 0 3 16 1.14 0.00
 0 -4 15 0.09 0.00
 0 -4 14 -1.37 0.00
 0 -4 13 -2.98 0.00
 0 -5 15 1.19 0.00
 0 -5 14 -0.47 0.00
 0 -5 13 -2.44 0.00
 0 -6 14 0.77 0.00
 0 -6 13 -0.97 0.00
 0 -7 13 0.25 0.00
 0 -8 13 0.51 0.00
 1 -6 14 1.34 0.00
 1 -5 14 0.67 0.00
 1 -5 15 0.96 0.00
 1 -4 14 0.48 0.00
 1 -4 15 -0.01 0.00
 1 -3 14 0.95 0.00
 1 -3 15 0.01 0.00
 1 -3 16 -0.86 0.00
 -1 2 15 0.57 0.00
 -1 2 14 -0.26 0.00
 1 -2 13 2.08 0.00
 1 -2 14 1.86 0.00
 1 -2 15 0.64 0.00
 1 -2 16 -0.57 0.00
 -1 1 16 -0.78 0.00
 -1 1 15 1.19 0.00
 -1 1 14 0.48 0.00
 -1 1 13 -1.53 0.00
 1 -1 13 3.00 0.00
 1 -1 14 2.95 0.00
 1 -1 15 1.24 0.00
 1 -1 16 0.04 0.00
 -1 0 15 -0.46 0.00
 -1 0 14 0.74 0.00
 -1 0 13 -1.14 0.00
 -1 0 12 -1.11 0.00
 1 0 13 2.57 0.00
 1 0 14 3.44 0.00
 1 0 15 2.08 0.00
 1 0 16 0.52 0.00
 -1 -1 15 -2.27 0.00
 -1 -1 14 -0.76 0.00
 -1 -1 13 -1.38 0.00
 -1 -1 12 -1.63 0.00
 -1 -1 11 0.87 0.00
 1 1 13 1.50 0.00
 1 1 14 2.75 0.00
 1 1 15 2.63 0.00
 1 1 16 1.29 0.00
 -1 -2 15 -2.21 0.00
 -1 -2 14 -2.25 0.00
 -1 -2 13 -2.14 0.00
 -1 -2 12 -2.33 0.00
 -1 -2 11 -0.32 0.00
 1 2 14 1.51 0.00
 1 2 15 2.17 0.00
 1 2 16 1.57 0.00
 -1 -3 15 -1.13 0.00
 -1 -3 14 -2.85 0.00
 -1 -3 13 -2.96 0.00
 -1 -3 11 -1.47 0.00
 1 3 16 0.98 0.00
 -1 -4 15 0.06 0.00
 -1 -4 14 -2.65 0.00
 -1 -4 13 -3.65 0.00
 -1 -4 12 -2.84 0.00
 -1 -4 11 -2.27 0.00
 -1 -5 14 -1.62 0.00
 -1 -5 13 -3.45 0.00
 -1 -5 12 -3.06 0.00
 -1 -6 14 -0.18 0.00
 -1 -6 13 -2.26 0.00
 -1 -6 12 -2.35 0.00
 -1 -7 13 -0.79 0.00
 -1 -7 12 -1.29 0.00
 -1 -8 12 -0.59 0.00
 -1 -9 12 -0.33 0.00
 2 -5 15 -0.02 0.00
 2 -4 15 -0.93 0.00
 2 -3 15 -0.62 0.00
 2 -3 16 -1.05 0.00
 -2 2 15 0.65 0.00
 -2 2 14 1.02 0.00
 2 -2 15 0.37 0.00
 2 -2 16 -0.73 0.00
 -2 1 15 1.65 0.00
 -2 1 14 1.12 0.00
 -2 1 13 0.59 0.00
 2 -1 14 2.22 0.00
 2 -1 15 1.27 0.00
 2 -1 16 0.02 0.00
 -2 0 15 0.94 0.00
 -2 0 14 1.64 0.00
 -2 0 13 0.79 0.00
 -2 0 12 1.63 0.00
 2 0 14 1.55 0.00
 2 0 15 1.72 0.00
 2 0 16 0.83 0.00
 -2 -1 15 -0.63 0.00
 -2 -1 14 0.92 0.00
 -2 -1 13 0.51 0.00
 -2 -1 12 1.35 0.00
 -2 -1 11 2.83 0.00
 2 1 14 0.18 0.00
 2 1 15 1.04 0.00
 2 1 16 1.50 0.00
 -2 -2 15 -1.16 0.00
 -2 -2 14 0.05 0.00
 -2 -2 13 0.27 0.00
 -2 -2 12 0.28 0.00
 -2 -2 11 1.95 0.00
 2 2 14 -0.22 0.00
 2 2 15 -0.15 0.00
 2 2 16 1.01 0.00
 -2 -3 14 -0.70 0.00
 -2 -3 13 0.35 0.00
 -2 -3 12 0.42 0.00
 -2 -3 11 0.50 0.00
 -2 -3 10 1.53 0.00
 2 3 16 -0.14 0.00
 -2 -4 14 -1.52 0.00
 -2 -4 13 -0.43 0.00
 -2 -4 12 0.67 0.00
 -2 -4 11 0.11 0.00
 -2 -4 10 0.81 0.00
 -2 -5 14 -1.93 0.00
 -2 -5 13 -1.72 0.00
 -2 -5 12 -0.15 0.00
 -2 -5 11 -0.75 0.00
 -2 -5 10 0.23 0.00
 -2 -6 13 -2.53 0.00
 -2 -6 12 -1.09 0.00
 -2 -6 11 -1.55 0.00
 -2 -7 13 -2.25 0.00
 -2 -7 12 -1.69 0.00
 -2 -7 11 -1.25 0.00
 -2 -8 12 -1.66 0.00
 -2 -8 11 -0.62 0.00
 -2 -9 11 -0.36 0.00
 3 -3 16 -1.32 0.00
 -3 2 14 0.86 0.00
 3 -2 16 -0.82 0.00
 -3 1 14 1.13 0.00
 -3 1 13 1.78 0.00
 3 -1 16 -0.04 0.00
 -3 0 14 1.97 0.00
 -3 0 13 2.52 0.00
 -3 0 12 3.24 0.00
 3 0 15 2.10 0.00
 3 0 16 0.98 0.00
 -3 -1 14 1.94 0.00
 -3 -1 13 2.29 0.00
 -3 -1 12 3.79 0.00
 -3 -1 11 3.24 0.00
 3 1 15 1.08 0.00
 3 1 16 1.99 0.00
 -3 -2 14 1.88 0.00
 -3 -2 13 1.86 0.00
 -3 -2 12 2.36 0.00
 -3 -2 11 3.02 0.00
 -3 -2 10 1.93 0.00
 3 2 15 -0.71 0.00
 3 2 16 1.57 0.00
 -3 -3 14 1.77 0.00
 -3 -3 13 2.41 0.00
 -3 -3 12 1.86 0.00
 -3 -3 11 1.19 0.00
 -3 -3 10 0.79 0.00
 -3 -3 9 1.76 0.00
 3 3 15 -1.07 0.00
 3 3 16 0.21 0.00
 -3 -4 13 2.50 0.00
 -3 -4 12 2.45 0.00
 -3 -4 11 0.81 0.00
 -3 -4 10 -0.13 0.00
 -3 -4 9 0.07 0.00
 -3 -5 13 1.33 0.00
 -3 -5 12 2.17 0.00
 -3 -5 11 0.50 0.00
 -3 -5 10 0.23 0.00
 -3 -5 9 0.05 0.00
 -3 -6 13 -0.61 0.00
 -3 -6 12 1.01 0.00
 -3 -6 11 -0.39 0.00
 -3 -6 10 -0.48 0.00
 -3 -6 9 0.46 0.00
 -3 -7 12 -0.71 0.00
 -3 -7 11 -0.70 0.00
 -3 -7 10 -1.30 0.00
 -3 -8 11 -0.79 0.00
 -3 -8 10 -0.77 0.00
 -3 -9 10 0.11 0.00
 -4 2 14 -0.92 0.00
 -4 1 14 -0.88 0.00
 -4 1 13 0.29 0.00
 -4 0 14 0.01 0.00
 -4 0 13 1.31 0.00
 -4 0 12 1.47 0.00
 -4 -1 13 1.70 0.00
 -4 -1 12 3.12 0.00
 -4 -1 11 1.15 0.00
 -4 -2 13 1.01 0.00
 -4 -2 12 2.67 0.00
 -4 -2 11 2.59 0.00
 -4 -2 10 0.52 0.00
 -4 -3 13 0.90 0.00
 -4 -3 12 1.53 0.00
 -4 -3 11 1.69 0.00
 -4 -3 10 0.59 0.00
 -4 -3 9 1.68 0.00
 -4 -4 13 1.29 0.00
 -4 -4 12 1.21 0.00
 -4 -4 11 0.93 0.00
 -4 -4 10 -0.08 0.00
 -4 -4 9 0.11 0.00
 -4 -4 8 1.88 0.00
 -4 -4 7 0.97 0.00
 -4 -5 12 1.00 0.00
 -4 -5 11 0.19 0.00
 -4 -5 10 0.31 0.00
 -4 -5 9 -0.28 0.00
 -4 -5 8 -0.58 0.00
 -4 -6 12 0.82 0.00
 -4 -6 11 -0.99 0.00
 -4 -6 10 -0.44 0.00
 -4 -6 9 0.42 0.00
 -4 -6 8 -1.24 0.00
 -4 -7 11 -1.26 0.00
 -4 -7 10 -1.93 0.00
 -4 -7 9 -0.69 0.00
 -4 -7 8 -1.30 0.00
 -4 -8 10 -1.91 0.00
 -4 -8 9 -2.30 0.00
 -4 -8 8 -2.26 0.00
 -4 -9 10 -0.94 0.00
 -4 -9 9 -2.19 0.00
 -4 -10 9 -1.11 0.00
 -5 1 13 -0.75 0.00
 -5 0 13 -0.31 0.00
 -5 0 12 -1.03 0.00
 -5 -1 13 0.67 0.00
 -5 -1 12 0.45 0.00
 -5 -1 11 -1.54 0.00
 -5 -2 12 1.48 0.00
 -5 -2 11 0.60 0.00
 -5 -2 10 -1.01 0.00
 -5 -3 12 1.07 0.00
 -5 -3 11 1.35 0.00
 -5 -3 10 0.32 0.00
 -5 -3 9 1.08 0.00
 -5 -4 12 0.07 0.00
 -5 -4 11 1.06 0.00
 -5 -4 10 0.48 0.00
 -5 -4 9 0.83 0.00
 -5 -4 8 2.21 0.00
 -5 -5 11 -0.05 0.00
 -5 -5 10 0.81 0.00
 -5 -5 9 0.63 0.00
 -5 -5 8 0.85 0.00
 -5 -5 7 1.16 0.00
 -5 -6 11 -1.81 0.00
 -5 -6 10 -0.04 0.00
 -5 -6 9 1.37 0.00
 -5 -6 8 0.60 0.00
 -5 -6 7 0.50 0.00
 -5 -7 10 -2.04 0.00
 -5 -7 9 0.39 0.00
 -5 -7 8 1.09 0.00
 -5 -7 7 1.15 0.00
 -5 -8 9 -1.87 0.00
 -5 -8 8 -0.07 0.00
 -5 -8 7 1.73 0.00
 -5 -9 9 -2.52 0.00
 -5 -9 8 -1.79 0.00
 -5 -9 7 1.00 0.00
 -5 -10 8 -1.73 0.00
 -5 -10 7 0.02 0.00
 -6 0 12 -1.82 0.00
 -6 -1 12 -1.96 0.00
 -6 -1 11 -2.35 0.00
 -6 -2 11 -1.62 0.00
 -6 -2 10 -1.66 0.00
 -6 -3 11 -0.70 0.00
 -6 -3 10 -0.71 0.00
 -6 -3 9 -0.59 0.00
 -6 -4 11 -0.30 0.00
 -6 -4 10 -0.49 0.00
 -6 -4 9 -0.11 0.00
 -6 -4 8 0.17 0.00
 -6 -5 10 -0.30 0.00
 -6 -5 9 -0.28 0.00
 -6 -5 8 -0.03 0.00
 -6 -5 7 0.28 0.00
 -6 -6 10 -0.29 0.00
 -6 -6 9 0.26 0.00
 -6 -6 8 -0.02 0.00
 -6 -6 7 -0.21 0.00
 -6 -6 6 0.55 0.00
 -6 -7 9 0.40 0.00
 -6 -7 8 0.97 0.00
 -6 -7 7 0.55 0.00
 -6 -7 6 0.31 0.00
 -6 -8 8 1.08 0.00
 -6 -8 7 2.08 0.00
 -6 -8 6 1.52 0.00
 -6 -9 7 2.36 0.00
 -6 -9 6 3.01 0.00
 -7 -2 10 1.00 0.00
 -7 -3 10 1.11 0.00
 -7 -3 9 -0.10 0.00
 -7 -4 10 0.72 0.00
 -7 -4 9 0.40 0.00
 -7 -4 8 -1.18 0.00
 -7 -5 9 0.02 0.00
 -7 -5 8 -0.79 0.00
 -7 -5 7 -1.00 0.00
 -7 -6 8 -0.83 0.00
 -7 -6 7 -1.30 0.00
 -7 -6 6 -0.55 0.00
 -7 -7 8 -0.63 0.00
 -7 -7 7 -1.01 0.00
 -7 -7 6 -1.13 0.00
 -7 -7 5 -0.73 0.00
 -7 -8 7 0.05 0.00
 -7 -8 6 -0.42 0.00
 -7 -8 5 -0.91 0.00
 -7 -8 4 -0.95 0.00
 -7 -9 6 1.09 0.00
 -7 -9 5 -0.02 0.00
 -8 -4 8 -1.10 0.00
 -8 -5 8 -1.05 0.00
 -8 -5 7 -1.34 0.00
 1 0 0 53.76 0.00
 12 0 0 -0.07 0.00
 -12 1 0 -0.66 0.00
 0 1 0 67.88 0.00
 12 1 0 -0.50 0.00
 -12 2 0 -1.70 0.00
 12 2 0 -1.68 0.00
 -12 3 0 -1.93 0.00
 12 3 0 -1.40 0.00
 -12 4 0 -0.88 0.00
 12 4 0 0.69 0.00
 -12 5 0 0.19 0.00
 -11 5 0 -1.50 0.00
 12 5 0 2.05 0.00
 -11 6 0 -0.65 0.00
 11 6 0 4.16 0.00
 12 6 0 2.30 0.00
 -11 7 0 -0.16 0.00
 11 7 0 3.35 0.00
 -11 8 0 0.30 0.00
 -10 8 0 -0.98 0.00
 11 8 0 2.01 0.00
 -10 9 0 0.36 0.00
 10 9 0 -0.41 0.00
 -10 10 0 1.00 0.00
 -9 10 0 2.32 0.00
 9 10 0 -0.99 0.00
 10 10 0 -0.65 0.00
 -9 11 0 2.51 0.00
 -8 11 0 3.57 0.00
 2 11 0 0.54 0.00
 9 11 0 -0.44 0.00
 -8 12 0 3.21 0.00
 -7 12 0 2.87 0.00
 -6 12 0 1.13 0.00
 8 12 0 0.23 0.00
 9 12 0 -0.48 0.00
 -7 13 0 2.59 0.00
 -6 13 0 2.26 0.00
 7 13 0 1.01 0.00
 8 13 0 -0.22 0.00
 -6 14 0 2.40 0.00
 -5 14 0 1.93 0.00
 5 14 0 0.33 0.00
 6 14 0 1.63 0.00
 7 14 0 1.26 0.00
 -5 15 0 2.55 0.00
 -4 15 0 1.91 0.00
 -3 15 0 -0.02 0.00
 -2 15 0 -1.01 0.00
 2 15 0 0.57 0.00
 3 15 0 0.21 0.00
 4 15 0 -0.76 0.00
 5 15 0 -0.11 0.00
 -5 -15 1 -0.55 0.00
 -4 -15 1 -0.32 0.00
 -3 -15 1 -0.44 0.00
 -2 -15 1 -0.95 0.00
 -1 -15 1 -0.57 0.00
 1 -15 1 -0.13 0.00
 2 -15 1 0.00 0.00
 3 -15 1 2.13 0.00
 4 -15 1 3.78 0.00
 5 -15 1 2.86 0.00
 -6 -14 1 1.14 0.00
 -5 -14 1 0.51 0.00
 5 -14 1 3.70 0.00
 6 -14 1 2.38 0.00
 -7 -13 1 1.59 0.00
 -6 -13 1 2.13 0.00
 6 -13 1 2.92 0.00
 7 -13 1 1.85 0.00
 -8 -12 1 0.22 0.00
 7 -12 1 3.00 0.00
 8 -12 1 2.05 0.00
 -9 -11 1 0.22 0.00
 -8 -11 1 0.60 0.00
 7 -11 1 2.89 0.00
 8 -11 1 3.88 0.00
 9 -11 1 1.74 0.00
 -10 -10 1 0.53 0.00
 -9 -10 1 0.72 0.00
 9 -10 1 3.64 0.00
 10 -10 1 0.60 0.00
 -10 -9 1 0.66 0.00
 10 -9 1 1.30 0.00
 -11 -8 1 0.66 0.00
 -10 -8 1 0.11 0.00
 10 -8 1 -0.14 0.00
 11 -8 1 0.64 0.00
 -11 -7 1 1.42 0.00
 11 -7 1 -0.12 0.00
 -11 -6 1 2.44 0.00
 11 -6 1 -0.57 0.00
 -12 -5 1 2.28 0.00
 -11 -5 1 3.21 0.00
 12 -5 1 0.90 0.00
 -12 -4 1 2.88 0.00
 -1 -4 1 0.45 0.00
 12 -4 1 0.62 0.00
 -12 -3 1 1.49 0.00
 12 -3 1 -0.06 0.00
 -12 -2 1 -0.88 0.00
 12 -2 1 -0.97 0.00
 -12 -1 1 -1.15 0.00
 12 -1 1 -1.05 0.00
 -12 0 1 0.02 0.00
 0 0 1 55.07 0.00
 12 0 1 -0.56 0.00
 -12 1 1 0.81 0.00
 0 1 1 67.18 0.00
 12 1 1 -0.34 0.00
 -12 2 1 0.73 0.00
 12 2 1 -1.19 0.00
 -12 3 1 -0.16 0.00
 12 3 1 -2.74 0.00
 -12 4 1 -0.57 0.00
 -11 4 1 0.31 0.00
 12 4 1 -2.77 0.00
 -11 5 1 -0.40 0.00
 12 5 1 -1.34 0.00
 -11 6 1 -0.22 0.00
 11 6 1 1.60 0.00
 12 6 1 -0.09 0.00
 -11 7 1 -0.23 0.00
 11 7 1 2.14 0.00
 -10 8 1 -1.23 0.00
 11 8 1 1.61 0.00
 -10 9 1 -0.76 0.00
 10 9 1 -0.72 0.00
 11 9 1 1.10 0.00
 -9 10 1 -0.32 0.00
 3 10 1 0.28 0.00
 10 10 1 -0.85 0.00
 -9 11 1 1.30 0.00
 -8 11 1 0.32 0.00
 9 11 1 -1.22 0.00
 -8 12 1 2.26 0.00
 -7 12 1 0.21 0.00
 8 12 1 0.86 0.00
 9 12 1 -0.15 0.00
 -7 13 1 1.59 0.00
 -6 13 1 -0.18 0.00
 -5 13 1 -0.83 0.00
 7 13 1 0.78 0.00
 8 13 1 0.08 0.00
 -6 14 1 0.57 0.00
 -5 14 1 -0.66 0.00
 5 14 1 -0.24 0.00
 6 14 1 0.96 0.00
 7 14 1 0.94 0.00
 -5 15 1 0.02 0.00
 -4 15 1 -0.66 0.00
 -3 15 1 -0.87 0.00
 -2 15 1 -0.97 0.00
 3 15 1 -0.01 0.00
 4 15 1 -1.29 0.00
 5 15 1 0.05 0.00
 6 15 1 1.19 0.00
 -4 -15 2 0.01 0.00
 -3 -15 2 -0.89 0.00
 -2 -15 2 -0.59 0.00
 -1 -15 2 1.08 0.00
 0 -15 2 0.64 0.00
 1 -15 2 -1.08 0.00
 2 -15 2 -0.54 0.00
 3 -15 2 1.44 0.00
 4 -15 2 1.85 0.00
 5 -15 2 0.75 0.00
 -6 -14 2 -0.11 0.00
 -5 -14 2 -0.12 0.00
 -4 -14 2 0.03 0.00
 4 -14 2 3.40 0.00
 5 -14 2 2.38 0.00
 6 -14 2 1.00 0.00
 -7 -13 2 1.08 0.00
 -6 -13 2 1.40 0.00
 6 -13 2 1.98 0.00
 7 -13 2 0.89 0.00
 -8 -12 2 0.53 0.00
 -7 -12 2 1.37 0.00
 7 -12 2 2.03 0.00
 8 -12 2 1.24 0.00
 -9 -11 2 0.12 0.00
 -8 -11 2 0.17 0.00
 8 -11 2 2.66 0.00
 9 -11 2 1.59 0.00
 -9 -10 2 0.51 0.00
 8 -10 2 3.96 0.00
 9 -10 2 3.12 0.00
 10 -10 2 0.29 0.00
 -10 -9 2 1.22 0.00
 -9 -9 2 1.61 0.00
 10 -9 2 1.52 0.00
 -10 -8 2 1.21 0.00
 10 -8 2 1.51 0.00
 11 -8 2 0.86 0.00
 -11 -7 2 0.25 0.00
 -10 -7 2 0.19 0.00
 11 -7 2 0.38 0.00
 -11 -6 2 0.61 0.00
 11 -6 2 0.52 0.00
 12 -6 2 1.11 0.00
 -11 -5 2 0.82 0.00
 12 -5 2 1.82 0.00
 -12 -4 2 1.84 0.00
 -11 -4 2 1.46 0.00
 12 -4 2 1.76 0.00
 -12 -3 2 2.74 0.00
 12 -3 2 1.63 0.00
 -12 -2 2 1.17 0.00
 12 -2 2 1.04 0.00
 -12 -1 2 -0.94 0.00
 12 -1 2 -0.04 0.00
 -12 0 2 -0.92 0.00
 0 0 2 12.38 0.00
 12 0 2 -0.61 0.00
 -12 1 2 0.09 0.00
 0 1 2 31.03 0.00
 12 1 2 -0.77 0.00
 -12 2 2 0.74 0.00
 12 2 2 -1.01 0.00
 -12 3 2 0.58 0.00
 -11 3 2 3.08 0.00
 12 3 2 -2.22 0.00
 -11 4 2 2.09 0.00
 12 4 2 -3.75 0.00
 -11 5 2 -0.15 0.00
 12 5 2 -3.80 0.00
 -11 6 2 -1.02 0.00
 12 6 2 -2.57 0.00
 -11 7 2 -0.73 0.00
 -10 7 2 -1.19 0.00
 11 7 2 0.49 0.00
 12 7 2 -1.05 0.00
 -10 8 2 -1.50 0.00
 11 8 2 0.83 0.00
 -10 9 2 -1.33 0.00
 -9 9 2 -1.93 0.00
 10 9 2 -0.72 0.00
 11 9 2 0.59 0.00
 -9 10 2 -1.59 0.00
 10 10 2 -0.51 0.00
 -9 11 2 -0.58 0.00
 -8 11 2 -1.74 0.00
 9 11 2 -1.34 0.00
 10 11 2 -0.57 0.00
 -8 12 2 -0.51 0.00
 -7 12 2 -2.21 0.00
 8 12 2 0.99 0.00
 9 12 2 -0.28 0.00
 -7 13 2 -0.75 0.00
 -6 13 2 -2.38 0.00
 7 13 2 0.49 0.00
 8 13 2 0.71 0.00
 -6 14 2 -1.22 0.00
 -5 14 2 -1.62 0.00
 -4 14 2 0.54 0.00
 6 14 2 -0.75 0.00
 7 14 2 0.07 0.00
 -4 15 2 -0.21 0.00
 -3 15 2 1.13 0.00
 -2 15 2 0.36 0.00
 3 15 2 -0.72 0.00
 4 15 2 -1.36 0.00
 5 15 2 -0.34 0.00
 6 15 2 0.44 0.00
 -4 -15 3 -0.41 0.00
 -3 -15 3 -1.07 0.00
 -2 -15 3 0.70 0.00
 -1 -15 3 1.83 0.00
 0 -15 3 -0.33 0.00
 1 -15 3 -2.01 0.00
 2 -15 3 -1.12 0.00
 3 -15 3 0.04 0.00
 4 -15 3 0.19 0.00
 -6 -14 3 -0.29 0.00
 -5 -14 3 -0.45 0.00
 -4 -14 3 -1.13 0.00
 4 -14 3 1.73 0.00
 5 -14 3 0.80 0.00
 6 -14 3 0.30 0.00
 -7 -13 3 0.31 0.00
 -6 -13 3 0.03 0.00
 -5 -13 3 -0.57 0.00
 6 -13 3 1.67 0.00
 7 -13 3 0.48 0.00
 -8 -12 3 0.18 0.00
 -7 -12 3 0.85 0.00
 7 -12 3 1.17 0.00
 8 -12 3 0.26 0.00
 -8 -11 3 -0.37 0.00
 8 -11 3 1.13 0.00
 9 -11 3 1.44 0.00
 -9 -10 3 -0.77 0.00
 -8 -10 3 -1.03 0.00
 0 -10 3 -0.08 0.00
 9 -10 3 1.88 0.00
 10 -10 3 0.51 0.00
 -10 -9 3 0.66 0.00
 -9 -9 3 -0.26 0.00
 -8 -9 3 -1.03 0.00
 9 -9 3 2.89 0.00
 10 -9 3 0.38 0.00
 -10 -8 3 1.36 0.00
 10 -8 3 1.09 0.00
 11 -8 3 0.39 0.00
 -10 -7 3 1.39 0.00
 11 -7 3 0.36 0.00
 -11 -6 3 1.29 0.00
 11 -6 3 0.15 0.00
 12 -6 3 0.64 0.00
 -11 -5 3 1.45 0.00
 12 -5 3 1.29 0.00
 -11 -4 3 0.71 0.00
 12 -4 3 1.43 0.00
 -11 -3 3 0.87 0.00
 12 -3 3 0.77 0.00
 -12 -2 3 1.59 0.00
 -11 -2 3 1.71 0.00
 12 -2 3 0.57 0.00
 -12 -1 3 0.06 0.00
 -11 -1 3 0.74 0.00
 12 -1 3 0.30 0.00
 -12 0 3 -1.27 0.00
 -11 0 3 -0.75 0.00
 12 0 3 0.01 0.00
 -12 1 3 -0.98 0.00
 -11 1 3 -1.01 0.00
 12 1 3 -0.03 0.00
 -12 2 3 -0.48 0.00
 -11 2 3 -0.43 0.00
 1 2 3 9.54 0.00
 12 2 3 -0.09 0.00
 -11 3 3 0.99 0.00
 -7 3 3 -1.99 0.00
 12 3 3 -0.55 0.00
 -11 4 3 1.90 0.00
 12 4 3 -1.87 0.00
 -11 5 3 0.88 0.00
 12 5 3 -2.98 0.00
 -11 6 3 -0.50 0.00
 -10 6 3 0.23 0.00
 12 6 3 -2.80 0.00
 -10 7 3 -0.23 0.00
 11 7 3 -0.37 0.00
 12 7 3 -1.49 0.00
 -10 8 3 -0.33 0.00
 11 8 3 1.02 0.00
 -9 9 3 -0.71 0.00
 10 9 3 0.07 0.00
 11 9 3 0.62 0.00
 -9 10 3 -1.25 0.00
 -8 10 3 -0.27 0.00
 10 10 3 -0.85 0.00
 -8 11 3 -0.54 0.00
 9 11 3 -1.39 0.00
 10 11 3 -0.62 0.00
 -8 12 3 -0.84 0.00
 -7 12 3 -1.05 0.00
 8 12 3 1.05 0.00
 9 12 3 -0.66 0.00
 -7 13 3 -1.53 0.00
 -6 13 3 -2.79 0.00
 7 13 3 0.96 0.00
 8 13 3 1.30 0.00
 -6 14 3 -2.12 0.00
 -5 14 3 -2.28 0.00
 -4 14 3 0.21 0.00
 6 14 3 -1.81 0.00
 7 14 3 -0.06 0.00
 -4 15 3 0.15 0.00
 -3 15 3 1.65 0.00
 -2 15 3 0.39 0.00
 -1 15 3 -2.16 0.00
 3 15 3 -0.35 0.00
 4 15 3 -0.79 0.00
 5 15 3 -0.87 0.00
 6 15 3 -0.54 0.00
 -3 -15 4 0.06 0.00
 -2 -15 4 1.75 0.00
 -1 -15 4 0.65 0.00
 0 -15 4 -1.87 0.00
 1 -15 4 -2.22 0.00
 2 -15 4 -1.43 0.00
 3 -15 4 -0.46 0.00
 4 -15 4 0.53 0.00
 -5 -14 4 0.42 0.00
 -4 -14 4 -0.80 0.00
 -3 -14 4 -0.65 0.00
 4 -14 4 0.37 0.00
 5 -14 4 0.44 0.00
 6 -14 4 -0.19 0.00
 -6 -13 4 0.48 0.00
 -5 -13 4 -0.30 0.00
 6 -13 4 1.20 0.00
 7 -13 4 -0.25 0.00
 -7 -12 4 1.17 0.00
 -6 -12 4 0.85 0.00
 7 -12 4 0.19 0.00
 8 -12 4 -0.55 0.00
 -8 -11 4 0.10 0.00
 -7 -11 4 1.05 0.00
 8 -11 4 -0.46 0.00
 9 -11 4 0.78 0.00
 -9 -10 4 -1.03 0.00
 -8 -10 4 -1.09 0.00
 9 -10 4 1.25 0.00
 10 -10 4 0.81 0.00
 -9 -9 4 -1.63 0.00
 -8 -9 4 -2.06 0.00
 10 -9 4 -0.12 0.00
 -10 -8 4 0.32 0.00
 -9 -8 4 -1.14 0.00
 -8 -8 4 -2.03 0.00
 10 -8 4 -0.67 0.00
 11 -8 4 -0.62 0.00
 -10 -7 4 0.38 0.00
 10 -7 4 -0.52 0.00
 11 -7 4 -0.09 0.00
 -10 -6 4 0.09 0.00
 11 -6 4 -0.52 0.00
 12 -6 4 0.66 0.00
 -11 -5 4 1.95 0.00
 -10 -5 4 0.79 0.00
 12 -5 4 0.42 0.00
 -11 -4 4 2.29 0.00
 12 -4 4 1.00 0.00
 -11 -3 4 1.36 0.00
 12 -3 4 0.81 0.00
 -11 -2 4 1.20 0.00
 12 -2 4 0.37 0.00
 -11 -1 4 1.31 0.00
 12 -1 4 0.53 0.00
 -11 0 4 0.50 0.00
 -11 1 4 0.41 0.00
 -11 2 4 1.19 0.00
 12 2 4 1.63 0.00
 -11 3 4 1.79 0.00
 12 3 4 1.39 0.00
 -11 4 4 2.39 0.00
 12 4 4 0.45 0.00
 -11 5 4 2.44 0.00
 -10 5 4 2.19 0.00
 12 5 4 -0.97 0.00
 -10 6 4 2.09 0.00
 12 6 4 -1.88 0.00
 -10 7 4 1.36 0.00
 11 7 4 -2.01 0.00
 12 7 4 -1.91 0.00
 -10 8 4 1.13 0.00
 -9 8 4 1.69 0.00
 11 8 4 -0.44 0.00
 -9 9 4 1.10 0.00
 10 9 4 1.04 0.00
 11 9 4 0.72 0.00
 -9 10 4 -0.34 0.00
 -8 10 4 -0.23 0.00
 10 10 4 -0.05 0.00
 -8 11 4 0.11 0.00
 -7 11 4 -0.65 0.00
 9 11 4 -1.08 0.00
 10 11 4 -0.45 0.00
 -7 12 4 0.43 0.00
 -6 12 4 -1.46 0.00
 8 12 4 0.50 0.00
 9 12 4 -0.80 0.00
 -6 13 4 -1.79 0.00
 -5 13 4 -1.39 0.00
 7 13 4 1.65 0.00
 8 13 4 1.28 0.00
 -5 14 4 -2.04 0.00
 -4 14 4 0.78 0.00
 6 14 4 -0.18 0.00
 7 14 4 1.09 0.00
 -4 15 4 0.10 0.00
 -3 15 4 1.61 0.00
 -2 15 4 0.62 0.00
 -1 15 4 -0.94 0.00
 0 15 4 -1.30 0.00
 1 15 4 -0.70 0.00
 2 15 4 -0.03 0.00
 3 15 4 -0.07 0.00
 4 15 4 -0.52 0.00
 5 15 4 -0.76 0.00
 6 15 4 -0.21 0.00
 -2 -15 5 1.45 0.00
 -1 -15 5 -0.96 0.00
 0 -15 5 -1.91 0.00
 1 -15 5 -1.15 0.00
 2 -15 5 -1.14 0.00
 3 -15 5 -0.29 0.00
 4 -15 5 0.90 0.00
 -4 -14 5 0.59 0.00
 -3 -14 5 1.97 0.00
 -2 -14 5 3.00 0.00
 -1 -14 5 -0.51 0.00
 2 -14 5 -1.84 0.00
 3 -14 5 -1.53 0.00
 4 -14 5 0.31 0.00
 5 -14 5 0.26 0.00
 6 -14 5 -1.18 0.00
 -6 -13 5 1.23 0.00
 -5 -13 5 1.28 0.00
 -4 -13 5 0.52 0.00
 5 -13 5 1.38 0.00
 6 -13 5 -1.13 0.00
 7 -13 5 -1.97 0.00
 -7 -12 5 1.41 0.00
 -6 -12 5 1.43 0.00
 7 -12 5 -1.73 0.00
 8 -12 5 -0.99 0.00
 -8 -11 5 0.73 0.00
 -7 -11 5 1.96 0.00
 8 -11 5 -1.18 0.00
 9 -11 5 0.60 0.00
 -8 -10 5 -0.05 0.00
 -7 -10 5 1.40 0.00
 9 -10 5 1.40 0.00
 10 -10 5 0.91 0.00
 -9 -9 5 -1.65 0.00
 -8 -9 5 -1.54 0.00
 10 -9 5 1.02 0.00
 -9 -8 5 -2.14 0.00
 -8 -8 5 -2.53 0.00
 10 -8 5 -0.27 0.00
 11 -8 5 -0.62 0.00
 -10 -7 5 -0.31 0.00
 -9 -7 5 -1.74 0.00
 -8 -7 5 -2.24 0.00
 11 -7 5 -0.31 0.00
 -10 -6 5 -0.96 0.00
 11 -6 5 0.39 0.00
 12 -6 5 1.13 0.00
 -10 -5 5 -1.50 0.00
 12 -5 5 0.99 0.00
 -11 -4 5 2.07 0.00
 -10 -4 5 -0.34 0.00
 12 -4 5 0.90 0.00
 -11 -3 5 2.46 0.00
 12 -3 5 1.17 0.00
 -11 -2 5 1.64 0.00
 12 -2 5 0.71 0.00
 -11 -1 5 1.18 0.00
 12 -1 5 0.29 0.00
 -11 0 5 0.63 0.00
 -11 1 5 0.10 0.00
 -11 2 5 0.91 0.00
 12 2 5 1.58 0.00
 -11 3 5 2.00 0.00
 -8 3 5 -1.03 0.00
 12 3 5 2.09 0.00
 -11 4 5 2.06 0.00
 -10 4 5 1.28 0.00
 12 4 5 1.78 0.00
 -10 5 5 0.97 0.00
 12 5 5 0.63 0.00
 -10 6 5 0.97 0.00
 12 6 5 -0.42 0.00
 -10 7 5 0.52 0.00
 -9 7 5 -0.69 0.00
 11 7 5 -1.47 0.00
 12 7 5 -1.00 0.00
 -9 8 5 -0.42 0.00
 11 8 5 -1.89 0.00
 -9 9 5 0.57 0.00
 -8 9 5 -0.63 0.00
 10 9 5 -0.79 0.00
 11 9 5 -0.67 0.00
 -8 10 5 -0.64 0.00
 10 10 5 0.32 0.00
 -8 11 5 -0.59 0.00
 -7 11 5 -2.54 0.00
 9 11 5 0.41 0.00
 10 11 5 0.04 0.00
 -7 12 5 -0.94 0.00
 -6 12 5 -2.89 0.00
 8 12 5 -0.02 0.00
 9 12 5 -0.20 0.00
 -6 13 5 -1.75 0.00
 -5 13 5 -0.46 0.00
 7 13 5 0.06 0.00
 8 13 5 0.46 0.00
 -5 14 5 -0.92 0.00
 -4 14 5 2.06 0.00
 -3 14 5 2.40 0.00
 5 14 5 0.58 0.00
 6 14 5 0.51 0.00
 7 14 5 0.79 0.00
 -3 15 5 2.13 0.00
 -2 15 5 1.14 0.00
 -1 15 5 0.58 0.00
 0 15 5 0.38 0.00
 1 15 5 -0.25 0.00
 2 15 5 -0.16 0.00
 3 15 5 0.02 0.00
 4 15 5 -0.36 0.00
 5 15 5 -0.42 0.00
 6 15 5 0.12 0.00
 -1 -15 6 -0.83 0.00
 0 -15 6 0.18 0.00
 1 -15 6 0.99 0.00
 2 -15 6 0.07 0.00
 3 -15 6 0.11 0.00
 -4 -14 6 0.26 0.00
 -3 -14 6 1.63 0.00
 -2 -14 6 0.95 0.00
 -1 -14 6 -2.33 0.00
 0 -14 6 -1.91 0.00
 1 -14 6 0.37 0.00
 2 -14 6 -0.37 0.00
 3 -14 6 -0.43 0.00
 4 -14 6 0.91 0.00
 5 -14 6 0.00 0.00
 -5 -13 6 1.15 0.00
 -4 -13 6 0.84 0.00
 -3 -13 6 2.43 0.00
 5 -13 6 0.07 0.00
 6 -13 6 -2.49 0.00
 7 -13 6 -2.04 0.00
 -6 -12 6 1.33 0.00
 -5 -12 6 1.37 0.00
 7 -12 6 -3.16 0.00
 8 -12 6 -1.29 0.00
 -7 -11 6 1.48 0.00
 -6 -11 6 1.93 0.00
 8 -11 6 -1.60 0.00
 9 -11 6 -0.15 0.00
 -8 -10 6 0.22 0.00
 -7 -10 6 1.95 0.00
 -6 -10 6 3.08 0.00
 9 -10 6 0.18 0.00
 -8 -9 6 -0.70 0.00
 10 -9 6 0.33 0.00
 -9 -8 6 -1.66 0.00
 -8 -8 6 -1.90 0.00
 10 -8 6 -0.10 0.00
 11 -8 6 -0.72 0.00
 -9 -7 6 -1.60 0.00
 -8 -7 6 -2.36 0.00
 11 -7 6 -1.48 0.00
 -10 -6 6 0.14 0.00
 -9 -6 6 -0.97 0.00
 -8 -6 6 -1.64 0.00
 11 -6 6 -0.21 0.00
 12 -6 6 -0.17 0.00
 -10 -5 6 -0.78 0.00
 12 -5 6 0.97 0.00
 -10 -4 6 -1.73 0.00
 12 -4 6 0.87 0.00
 -10 -3 6 -1.34 0.00
 -8 -3 6 -1.71 0.00
 12 -3 6 0.64 0.00
 -10 -2 6 -0.46 0.00
 12 -2 6 0.39 0.00
 -11 -1 6 0.39 0.00
 -10 -1 6 -0.04 0.00
 12 -1 6 0.03 0.00
 -11 0 6 -0.08 0.00
 -10 0 6 -0.27 0.00
 12 0 6 -0.20 0.00
 -11 1 6 -0.71 0.00
 -10 1 6 -1.42 0.00
 12 1 6 -0.29 0.00
 -10 2 6 -1.89 0.00
 12 2 6 0.38 0.00
 -10 3 6 -0.84 0.00
 1 3 6 -0.87 0.00
 12 3 6 1.37 0.00
 -10 4 6 -0.15 0.00
 12 4 6 1.87 0.00
 -10 5 6 -0.47 0.00
 12 5 6 1.42 0.00
 -10 6 6 -0.60 0.00
 -9 6 6 -1.00 0.00
 12 6 6 0.42 0.00
 -9 7 6 -0.58 0.00
 11 7 6 0.33 0.00
 12 7 6 0.15 0.00
 -9 8 6 -0.98 0.00
 11 8 6 -0.69 0.00
 -8 9 6 -0.62 0.00
 10 9 6 -3.15 0.00
 11 9 6 -1.67 0.00
 -8 10 6 -0.53 0.00
 -7 10 6 0.73 0.00
 5 10 6 0.23 0.00
 10 10 6 -1.69 0.00
 -7 11 6 -1.08 0.00
 -6 11 6 1.27 0.00
 9 11 6 1.37 0.00
 10 11 6 -0.55 0.00
 -6 12 6 -1.68 0.00
 8 12 6 0.75 0.00
 9 12 6 0.76 0.00
 -5 13 6 0.30 0.00
 -4 13 6 1.78 0.00
 7 13 6 -1.74 0.00
 8 13 6 0.20 0.00
 -4 14 6 1.59 0.00
 -3 14 6 0.34 0.00
 -2 14 6 -0.15 0.00
 5 14 6 -0.22 0.00
 6 14 6 -1.22 0.00
 7 14 6 -0.67 0.00
 -3 15 6 1.20 0.00
 -2 15 6 0.72 0.00
 -1 15 6 1.79 0.00
 0 15 6 1.48 0.00
 1 15 6 -0.27 0.00
 2 15 6 0.12 0.00
 3 15 6 0.86 0.00
 4 15 6 -0.02 0.00
 5 15 6 -0.70 0.00
 -3 -14 7 0.17 0.00
 -2 -14 7 -1.21 0.00
 -1 -14 7 -2.59 0.00
 0 -14 7 -0.24 0.00
 1 -14 7 1.89 0.00
 2 -14 7 0.98 0.00
 3 -14 7 0.58 0.00
 4 -14 7 0.69 0.00
 -4 -13 7 -0.18 0.00
 -3 -13 7 0.91 0.00
 -2 -13 7 -0.55 0.00
 4 -13 7 0.79 0.00
 5 -13 7 0.00 0.00
 6 -13 7 -0.56 0.00
 -5 -12 7 0.68 0.00
 -4 -12 7 0.42 0.00
 6 -12 7 -1.87 0.00
 7 -12 7 -1.07 0.00
 -6 -11 7 0.66 0.00
 -5 -11 7 0.35 0.00
 7 -11 7 -1.70 0.00
 8 -11 7 -1.05 0.00
 -7 -10 7 1.00 0.00
 -6 -10 7 1.26 0.00
 8 -10 7 -1.57 0.00
 9 -10 7 -1.53 0.00
 -8 -9 7 -0.35 0.00
 -7 -9 7 0.98 0.00
 9 -9 7 -1.57 0.00
 10 -9 7 -1.79 0.00
 -8 -8 7 -1.02 0.00
 10 -8 7 -2.04 0.00
 -9 -7 7 -0.95 0.00
 -8 -7 7 -1.60 0.00
 11 -7 7 -2.73 0.00
 -9 -6 7 -0.85 0.00
 -8 -6 7 -1.78 0.00
 11 -6 7 -3.10 0.00
 -9 -5 7 -0.39 0.00
 11 -5 7 -0.86 0.00
 12 -5 7 -0.88 0.00
 -10 -4 7 -0.42 0.00
 -9 -4 7 -0.80 0.00
 12 -4 7 0.30 0.00
 -10 -3 7 -1.54 0.00
 12 -3 7 0.41 0.00
 -10 -2 7 -1.74 0.00
 12 -2 7 0.23 0.00
 -10 -1 7 -1.21 0.00
 12 -1 7 0.32 0.00
 -10 0 7 -0.64 0.00
 12 0 7 0.82 0.00
 -10 1 7 -0.62 0.00
 12 1 7 0.87 0.00
 -10 2 7 -1.23 0.00
 12 2 7 0.70 0.00
 -10 3 7 -1.31 0.00
 12 3 7 0.98 0.00
 -10 4 7 -0.57 0.00
 -9 4 7 -1.24 0.00
 12 4 7 1.33 0.00
 -10 5 7 -0.21 0.00
 -9 5 7 -0.66 0.00
 12 5 7 1.46 0.00
 -9 6 7 -0.12 0.00
 12 6 7 0.67 0.00
 -9 7 7 0.89 0.00
 -4 7 7 -1.03 0.00
 11 7 7 0.10 0.00
 12 7 7 -0.15 0.00
 -8 8 7 3.30 0.00
 11 8 7 0.45 0.00
 -8 9 7 1.80 0.00
 -7 9 7 2.93 0.00
 10 9 7 -1.96 0.00
 11 9 7 -0.37 0.00
 -7 10 7 1.97 0.00
 10 10 7 -2.49 0.00
 -7 11 7 0.94 0.00
 -6 11 7 2.97 0.00
 9 11 7 0.88 0.00
 10 11 7 -1.29 0.00
 -6 12 7 1.22 0.00
 -5 12 7 3.18 0.00
 8 12 7 1.32 0.00
 9 12 7 1.05 0.00
 -5 13 7 1.53 0.00
 -4 13 7 0.50 0.00
 -3 13 7 -3.38 0.00
 6 13 7 -2.04 0.00
 7 13 7 -1.57 0.00
 8 13 7 0.12 0.00
 -4 14 7 0.61 0.00
 -3 14 7 -1.52 0.00
 -2 14 7 -0.54 0.00
 -1 14 7 2.44 0.00
 4 14 7 2.04 0.00
 5 14 7 -0.13 0.00
 6 14 7 -1.40 0.00
 7 14 7 -1.13 0.00
 -2 15 7 0.26 0.00
 -1 15 7 2.08 0.00
 0 15 7 0.61 0.00
 1 15 7 -1.69 0.00
 2 15 7 0.21 0.00
 3 15 7 2.07 0.00
 4 15 7 0.95 0.00
 5 15 7 -0.04 0.00
 -1 -14 8 -1.79 0.00
 0 -14 8 -0.37 0.00
 1 -14 8 1.09 0.00
 2 -14 8 1.22 0.00
 3 -14 8 0.88 0.00
 -3 -13 8 0.32 0.00
 -2 -13 8 -2.04 0.00
 -1 -13 8 -4.53 0.00
 0 -13 8 -2.22 0.00
 1 -13 8 1.18 0.00
 2 -13 8 1.54 0.00
 3 -13 8 1.26 0.00
 4 -13 8 0.99 0.00
 5 -13 8 0.70 0.00
 6 -13 8 1.27 0.00
 -5 -12 8 -0.25 0.00
 -4 -12 8 -0.25 0.00
 -3 -12 8 0.69 0.00
 5 -12 8 0.19 0.00
 6 -12 8 0.77 0.00
 7 -12 8 1.68 0.00
 -6 -11 8 -0.55 0.00
 -5 -11 8 -0.56 0.00
 -4 -11 8 -0.51 0.00
 7 -11 8 1.03 0.00
 8 -11 8 0.24 0.00
 -6 -10 8 -0.89 0.00
 8 -10 8 -0.20 0.00
 9 -10 8 -1.47 0.00
 -7 -9 8 0.14 0.00
 -6 -9 8 -0.12 0.00
 9 -9 8 -2.15 0.00
 10 -9 8 -1.49 0.00
 -8 -8 8 -0.77 0.00
 -7 -8 8 -0.13 0.00
 10 -8 8 -2.60 0.00
 -8 -7 8 -0.86 0.00
 10 -7 8 -3.38 0.00
 11 -7 8 -1.85 0.00
 -9 -6 8 -0.56 0.00
 -8 -6 8 -0.81 0.00
 11 -6 8 -3.84 0.00
 -9 -5 8 -0.75 0.00
 11 -5 8 -3.80 0.00
 12 -5 8 -1.76 0.00
 -9 -4 8 -0.41 0.00
 11 -4 8 -1.42 0.00
 12 -4 8 -0.84 0.00
 -9 -3 8 -0.44 0.00
 12 -3 8 0.11 0.00
 -10 -2 8 -0.94 0.00
 -9 -2 8 -1.33 0.00
 12 -2 8 0.04 0.00
 -10 -1 8 -1.01 0.00
 -9 -1 8 -1.93 0.00
 12 -1 8 -0.35 0.00
 -10 0 8 -0.29 0.00
 -9 0 8 -1.24 0.00
 12 0 8 0.14 0.00
 -10 1 8 0.42 0.00
 -9 1 8 0.14 0.00
 12 1 8 0.98 0.00
 -10 2 8 0.65 0.00
 -9 2 8 0.60 0.00
 2 2 8 -2.64 0.00
 12 2 8 0.98 0.00
 -9 3 8 0.16 0.00
 12 3 8 0.96 0.00
 -9 4 8 0.07 0.00
 7 4 8 2.86 0.00
 12 4 8 1.11 0.00
 -9 5 8 0.24 0.00
 12 5 8 1.34 0.00
 -9 6 8 0.00 0.00
 -8 6 8 0.84 0.00
 11 6 8 1.84 0.00
 12 6 8 1.40 0.00
 -8 7 8 1.14 0.00
 11 7 8 0.69 0.00
 -8 8 8 2.08 0.00
 -7 8 8 2.55 0.00
 11 8 8 0.49 0.00
 -8 9 8 2.28 0.00
 -7 9 8 2.72 0.00
 10 9 8 0.07 0.00
 11 9 8 1.07 0.00
 -7 10 8 1.80 0.00
 -6 10 8 1.65 0.00
 -2 10 8 -2.57 0.00
 9 10 8 -0.74 0.00
 10 10 8 -0.89 0.00
 -6 11 8 2.00 0.00
 -5 11 8 1.61 0.00
 8 11 8 0.84 0.00
 9 11 8 -0.15 0.00
 -5 12 8 2.54 0.00
 -4 12 8 -0.41 0.00
 7 12 8 0.04 0.00
 8 12 8 1.20 0.00
 9 12 8 0.62 0.00
 -4 13 8 -0.05 0.00
 -3 13 8 -3.63 0.00
 6 13 8 -0.04 0.00
 7 13 8 -0.23 0.00
 8 13 8 0.38 0.00
 -3 14 8 -2.00 0.00
 -2 14 8 -1.05 0.00
 -1 14 8 0.68 0.00
 0 14 8 -1.39 0.00
 1 14 8 -2.17 0.00
 2 14 8 1.71 0.00
 3 14 8 3.99 0.00
 4 14 8 2.37 0.00
 5 14 8 0.75 0.00
 6 14 8 -0.19 0.00
 -1 15 8 1.27 0.00
 0 15 8 -0.90 0.00
 1 15 8 -2.42 0.00
 2 15 8 0.60 0.00
 3 15 8 2.61 0.00
 4 15 8 1.43 0.00
 -2 -13 9 -1.10 0.00
 -1 -13 9 -2.25 0.00
 0 -13 9 -0.78 0.00
 1 -13 9 1.78 0.00
 2 -13 9 2.90 0.00
 3 -13 9 2.27 0.00
 4 -13 9 0.93 0.00
 5 -13 9 0.60 0.00
 -4 -12 9 -0.05 0.00
 -3 -12 9 0.22 0.00
 -2 -12 9 -2.15 0.00
 -1 -12 9 -5.25 0.00
 3 -12 9 2.42 0.00
 4 -12 9 1.31 0.00
 5 -12 9 1.01 0.00
 6 -12 9 1.92 0.00
 -5 -11 9 -0.56 0.00
 -4 -11 9 -0.63 0.00
 -3 -11 9 0.22 0.00
 6 -11 9 1.54 0.00
 7 -11 9 2.07 0.00
 8 -11 9 0.18 0.00
 -6 -10 9 -1.26 0.00
 -5 -10 9 -1.40 0.00
 7 -10 9 2.34 0.00
 8 -10 9 0.39 0.00
 9 -10 9 -0.86 0.00
 -6 -9 9 -1.52 0.00
 8 -9 9 0.48 0.00
 9 -9 9 -0.93 0.00
 -7 -8 9 -0.34 0.00
 -6 -8 9 -0.62 0.00
 9 -8 9 -1.21 0.00
 10 -8 9 -0.93 0.00
 -8 -7 9 -0.86 0.00
 -7 -7 9 -0.75 0.00
 10 -7 9 -1.89 0.00
 -8 -6 9 -0.12 0.00
 -7 -6 9 -0.66 0.00
 10 -6 9 -2.91 0.00
 11 -6 9 -1.77 0.00
 -8 -5 9 0.68 0.00
 11 -5 9 -3.58 0.00
 -9 -4 9 -0.06 0.00
 -8 -4 9 0.75 0.00
 11 -4 9 -3.24 0.00
 12 -4 9 -1.02 0.00
 -9 -3 9 0.45 0.00
 -8 -3 9 0.84 0.00
 6 -3 9 -0.09 0.00
 11 -3 9 -1.50 0.00
 12 -3 9 -0.31 0.00
 -9 -2 9 0.44 0.00
 12 -2 9 -0.08 0.00
 -9 -1 9 -0.44 0.00
 12 -1 9 -1.05 0.00
 -9 0 9 -0.73 0.00
 12 0 9 -1.86 0.00
 -9 1 9 -0.04 0.00
 12 1 9 -1.21 0.00
 -9 2 9 0.42 0.00
 12 2 9 -0.60 0.00
 -9 3 9 0.07 0.00
 12 3 9 -0.50 0.00
 -9 4 9 -0.33 0.00
 -8 4 9 -2.07 0.00
 2 4 9 -2.61 0.00
 12 4 9 0.08 0.00
 -9 5 9 -0.18 0.00
 -8 5 9 -1.28 0.00
 11 5 9 0.83 0.00
 12 5 9 0.63 0.00
 -8 6 9 0.00 0.00
 11 6 9 2.24 0.00
 12 6 9 1.27 0.00
 -8 7 9 0.25 0.00
 -7 7 9 1.79 0.00
 11 7 9 2.17 0.00
 -7 8 9 1.79 0.00
 7 8 9 -0.48 0.00
 10 8 9 -0.42 0.00
 11 8 9 0.64 0.00
 -7 9 9 1.83 0.00
 -6 9 9 3.11 0.00
 10 9 9 -0.03 0.00
 -6 10 9 2.72 0.00
 -5 10 9 2.69 0.00
 9 10 9 -0.86 0.00
 10 10 9 0.17 0.00
 -6 11 9 1.98 0.00
 -5 11 9 2.35 0.00
 8 11 9 -0.25 0.00
 9 11 9 -0.64 0.00
 -5 12 9 2.10 0.00
 -4 12 9 1.10 0.00
 -3 12 9 -1.02 0.00
 7 12 9 0.24 0.00
 8 12 9 0.56 0.00
 -4 13 9 0.39 0.00
 -3 13 9 -1.85 0.00
 -2 13 9 -2.24 0.00
 -1 13 9 -1.29 0.00
 5 13 9 -0.60 0.00
 6 13 9 0.06 0.00
 7 13 9 0.71 0.00
 -2 14 9 -1.44 0.00
 -1 14 9 -0.84 0.00
 0 14 9 -1.65 0.00
 1 14 9 -1.23 0.00
 2 14 9 1.38 0.00
 3 14 9 2.21 0.00
 4 14 9 0.52 0.00
 5 14 9 -0.27 0.00
 6 14 9 0.16 0.00
 1 15 9 -1.06 0.00
 2 15 9 1.15 0.00
 3 15 9 1.78 0.00
 0 -13 10 0.04 0.00
 1 -13 10 1.19 0.00
 2 -13 10 1.80 0.00
 3 -13 10 0.97 0.00
 -2 -12 10 -0.50 0.00
 -1 -12 10 -1.60 0.00
 0 -12 10 -0.38 0.00
 1 -12 10 2.22 0.00
 2 -12 10 3.35 0.00
 3 -12 10 2.31 0.00
 4 -12 10 0.64 0.00
 5 -12 10 0.51 0.00
 6 -12 10 0.98 0.00
 -4 -11 10 -0.11 0.00
 -3 -11 10 0.32 0.00
 -2 -11 10 -0.94 0.00
 5 -11 10 0.27 0.00
 6 -11 10 1.74 0.00
 7 -11 10 1.28 0.00
 -5 -10 10 -0.16 0.00
 -4 -10 10 -0.47 0.00
 -3 -10 10 0.25 0.00
 7 -10 10 1.94 0.00
 8 -10 10 -0.19 0.00
 -6 -9 10 -1.08 0.00
 -5 -9 10 -1.39 0.00
 8 -9 10 0.51 0.00
 9 -9 10 -0.49 0.00
 -6 -8 10 -1.52 0.00
 -5 -8 10 -2.63 0.00
 9 -8 10 0.01 0.00
 10 -8 10 0.34 0.00
 -7 -7 10 -0.33 0.00
 -6 -7 10 -0.97 0.00
 9 -7 10 0.42 0.00
 10 -7 10 -0.22 0.00
 -7 -6 10 -0.76 0.00
 10 -6 10 -0.37 0.00
 11 -6 10 -0.25 0.00
 -8 -5 10 0.88 0.00
 -7 -5 10 -0.25 0.00
 10 -5 10 -0.86 0.00
 11 -5 10 -1.15 0.00
 -8 -4 10 1.89 0.00
 11 -4 10 -1.98 0.00
 -8 -3 10 2.26 0.00
 11 -3 10 -1.40 0.00
 12 -3 10 -0.02 0.00
 -8 -2 10 2.68 0.00
 -2 -2 10 2.54 0.00
 11 -2 10 -0.59 0.00
 12 -2 10 0.37 0.00
 -8 -1 10 2.74 0.00
 12 -1 10 -0.18 0.00
 -9 0 10 -0.22 0.00
 -8 0 10 2.00 0.00
 12 0 10 -1.79 0.00
 -9 1 10 -0.29 0.00
 -8 1 10 1.50 0.00
 12 1 10 -2.46 0.00
 -8 2 10 1.50 0.00
 12 2 10 -1.87 0.00
 -8 3 10 0.51 0.00
 12 3 10 -1.99 0.00
 -8 4 10 -1.39 0.00
 10 4 10 -3.47 0.00
 11 4 10 -3.25 0.00
 12 4 10 -2.04 0.00
 -8 5 10 -2.22 0.00
 -7 5 10 -0.77 0.00
 7 5 10 -1.42 0.00
 11 5 10 -2.19 0.00
 12 5 10 -1.29 0.00
 -8 6 10 -1.22 0.00
 -7 6 10 -0.46 0.00
 11 6 10 -0.38 0.00
 -7 7 10 0.86 0.00
 10 7 10 0.31 0.00
 11 7 10 1.30 0.00
 -7 8 10 1.56 0.00
 -6 8 10 2.18 0.00
 10 8 10 -0.10 0.00
 11 8 10 0.91 0.00
 -6 9 10 1.96 0.00
 9 9 10 -0.97 0.00
 10 9 10 -0.50 0.00
 -6 10 10 1.84 0.00
 -5 10 10 0.33 0.00
 9 10 10 -0.32 0.00
 -5 11 10 0.74 0.00
 -4 11 10 -0.05 0.00
 7 11 10 -0.64 0.00
 8 11 10 -0.91 0.00
 9 11 10 0.02 0.00
 -4 12 10 0.29 0.00
 -3 12 10 -0.35 0.00
 -2 12 10 -0.61 0.00
 2 12 10 0.42 0.00
 6 12 10 -0.75 0.00
 7 12 10 -0.55 0.00
 8 12 10 -0.56 0.00
 -3 13 10 -0.52 0.00
 -2 13 10 -0.58 0.00
 -1 13 10 0.42 0.00
 0 13 10 0.71 0.00
 1 13 10 0.04 0.00
 2 13 10 0.77 0.00
 3 13 10 1.19 0.00
 4 13 10 -1.07 0.00
 5 13 10 -2.35 0.00
 6 13 10 -1.01 0.00
 7 13 10 -0.17 0.00
 -1 14 10 -0.40 0.00
 0 14 10 -0.06 0.00
 1 14 10 0.15 0.00
 2 14 10 0.90 0.00
 3 14 10 0.90 0.00
 4 14 10 -0.83 0.00
 5 14 10 -1.52 0.00
 -1 -12 11 0.21 0.00
 0 -12 11 0.20 0.00
 1 -12 11 0.88 0.00
 2 -12 11 1.00 0.00
 3 -12 11 0.06 0.00
 4 -12 11 -0.82 0.00
 -3 -11 11 0.46 0.00
 -2 -11 11 0.41 0.00
 -1 -11 11 -0.13 0.00
 0 -11 11 0.35 0.00
 1 -11 11 1.63 0.00
 2 -11 11 2.00 0.00
 3 -11 11 0.93 0.00
 4 -11 11 -0.55 0.00
 5 -11 11 -0.35 0.00
 6 -11 11 0.91 0.00
 -4 -10 11 -0.72 0.00
 -3 -10 11 -0.37 0.00
 -2 -10 11 -0.10 0.00
 5 -10 11 -1.49 0.00
 6 -10 11 0.88 0.00
 7 -10 11 1.30 0.00
 -5 -9 11 -0.39 0.00
 -4 -9 11 -1.03 0.00
 -3 -9 11 -0.89 0.00
 7 -9 11 1.85 0.00
 8 -9 11 -0.17 0.00
 -6 -8 11 -1.13 0.00
 -5 -8 11 -1.49 0.00
 -4 -8 11 -1.00 0.00
 8 -8 11 0.65 0.00
 9 -8 11 -0.04 0.00
 -6 -7 11 -1.44 0.00
 -5 -7 11 -2.40 0.00
 9 -7 11 0.83 0.00
 10 -7 11 0.35 0.00
 -7 -6 11 -0.23 0.00
 -6 -6 11 -0.98 0.00
 9 -6 11 1.95 0.00
 10 -6 11 0.49 0.00
 -7 -5 11 -0.64 0.00
 -6 -5 11 -0.39 0.00
 10 -5 11 1.13 0.00
 11 -5 11 -0.24 0.00
 -7 -4 11 -0.39 0.00
 10 -4 11 1.04 0.00
 11 -4 11 -0.54 0.00
 -8 -3 11 1.18 0.00
 -7 -3 11 -0.07 0.00
 11 -3 11 -0.55 0.00
 -8 -2 11 1.66 0.00
 -7 -2 11 0.07 0.00
 11 -2 11 0.14 0.00
 -8 -1 11 2.35 0.00
 -7 -1 11 0.63 0.00
 11 -1 11 0.39 0.00
 12 -1 11 0.66 0.00
 -8 0 11 2.22 0.00
 -7 0 11 1.31 0.00
 11 0 11 -0.88 0.00
 12 0 11 -0.09 0.00
 -8 1 11 1.49 0.00
 -7 1 11 1.33 0.00
 11 1 11 -2.17 0.00
 12 1 11 -1.52 0.00
 -8 2 11 1.59 0.00
 -7 2 11 1.81 0.00
 11 2 11 -2.12 0.00
 12 2 11 -1.55 0.00
 -8 3 11 2.05 0.00
 -7 3 11 3.26 0.00
 11 3 11 -2.82 0.00
 12 3 11 -1.23 0.00
 -8 4 11 1.41 0.00
 -7 4 11 3.60 0.00
 11 4 11 -4.49 0.00
 12 4 11 -1.99 0.00
 -7 5 11 2.20 0.00
 11 5 11 -4.65 0.00
 -7 6 11 0.56 0.00
 -6 6 11 3.05 0.00
 10 6 11 -3.08 0.00
 11 6 11 -3.06 0.00
 -7 7 11 -0.02 0.00
 -6 7 11 1.78 0.00
 10 7 11 -0.85 0.00
 11 7 11 -0.62 0.00
 -6 8 11 0.81 0.00
 -5 8 11 -0.30 0.00
 9 8 11 -1.16 0.00
 10 8 11 0.19 0.00
 -6 9 11 0.44 0.00
 -5 9 11 -1.18 0.00
 2 9 11 -0.82 0.00
 9 9 11 -1.03 0.00
 10 9 11 -0.03 0.00
 -5 10 11 -1.42 0.00
 -4 10 11 -1.46 0.00
 2 10 11 -2.66 0.00
 8 10 11 -1.22 0.00
 9 10 11 -0.29 0.00
 -4 11 11 -1.33 0.00
 -3 11 11 -0.42 0.00
 -2 11 11 -0.35 0.00
 7 11 11 -2.01 0.00
 8 11 11 -1.28 0.00
 -3 12 11 -0.43 0.00
 -2 12 11 -0.36 0.00
 -1 12 11 0.26 0.00
 0 12 11 -0.22 0.00
 5 12 11 0.44 0.00
 6 12 11 0.11 0.00
 7 12 11 -1.25 0.00
 -2 13 11 0.25 0.00
 -1 13 11 0.84 0.00
 0 13 11 0.52 0.00
 1 13 11 -0.95 0.00
 2 13 11 -0.45 0.00
 3 13 11 0.88 0.00
 4 13 11 0.06 0.00
 5 13 11 -0.66 0.00
 6 13 11 -0.31 0.00
 1 14 11 -0.03 0.00
 2 14 11 -0.13 0.00
 3 14 11 0.44 0.00
 -1 -11 12 0.26 0.00
 0 -11 12 0.07 0.00
 1 -11 12 0.38 0.00
 2 -11 12 0.33 0.00
 3 -11 12 -0.26 0.00
 4 -11 12 -0.76 0.00
 5 -11 12 -0.66 0.00
 -3 -10 12 -0.70 0.00
 -2 -10 12 -0.06 0.00
 -1 -10 12 0.06 0.00
 0 -10 12 0.08 0.00
 1 -10 12 0.51 0.00
 2 -10 12 0.83 0.00
 3 -10 12 0.19 0.00
 4 -10 12 -1.44 0.00
 5 -10 12 -1.52 0.00
 6 -10 12 0.34 0.00
 -4 -9 12 -1.50 0.00
 -3 -9 12 -1.85 0.00
 -2 -9 12 -0.94 0.00
 6 -9 12 -0.42 0.00
 7 -9 12 0.97 0.00
 8 -9 12 -0.18 0.00
 -5 -8 12 -0.35 0.00
 -4 -8 12 -1.06 0.00
 -3 -8 12 -2.05 0.00
 7 -8 12 1.02 0.00
 8 -8 12 -0.30 0.00
 -5 -7 12 -0.73 0.00
 -4 -7 12 0.16 0.00
 8 -7 12 -0.19 0.00
 9 -7 12 0.17 0.00
 -6 -6 12 -1.18 0.00
 -5 -6 12 -1.26 0.00
 9 -6 12 0.82 0.00
 10 -6 12 0.12 0.00
 -6 -5 12 -0.81 0.00
 -5 -5 12 -1.00 0.00
 9 -5 12 2.33 0.00
 10 -5 12 0.49 0.00
 -7 -4 12 -0.74 0.00
 -6 -4 12 -0.35 0.00
 10 -4 12 1.51 0.00
 11 -4 12 -0.66 0.00
 -7 -3 12 -0.82 0.00
 -6 -3 12 -0.33 0.00
 -1 -3 12 -2.47 0.00
 10 -3 12 1.76 0.00
 11 -3 12 -0.53 0.00
 -7 -2 12 -1.02 0.00
 -6 -2 12 -1.02 0.00
 10 -2 12 1.46 0.00
 11 -2 12 0.07 0.00
 -7 -1 12 -0.78 0.00
 11 -1 12 0.95 0.00
 -7 0 12 0.22 0.00
 11 0 12 0.94 0.00
 -7 1 12 0.66 0.00
 11 1 12 -0.43 0.00
 -7 2 12 0.16 0.00
 11 2 12 -1.14 0.00
 -7 3 12 0.35 0.00
 -6 3 12 -1.26 0.00
 11 3 12 -0.80 0.00
 -7 4 12 1.37 0.00
 -6 4 12 -0.09 0.00
 11 4 12 -1.51 0.00
 -7 5 12 1.92 0.00
 -6 5 12 1.33 0.00
 10 5 12 -3.36 0.00
 11 5 12 -2.68 0.00
 -6 6 12 2.19 0.00
 2 6 12 -1.70 0.00
 10 6 12 -2.99 0.00
 11 6 12 -2.60 0.00
 -6 7 12 1.93 0.00
 -5 7 12 0.66 0.00
 2 7 12 -2.25 0.00
 9 7 12 -0.17 0.00
 10 7 12 -1.39 0.00
 -5 8 12 0.01 0.00
 -4 8 12 -1.82 0.00
 2 8 12 -1.41 0.00
 9 8 12 -0.84 0.00
 10 8 12 0.01 0.00
 -5 9 12 -0.61 0.00
 -4 9 12 -1.86 0.00
 8 9 12 -2.17 0.00
 9 9 12 -1.39 0.00
 -4 10 12 -0.75 0.00
 -3 10 12 -0.16 0.00
 -2 10 12 1.00 0.00
 3 10 12 2.67 0.00
 7 10 12 -3.22 0.00
 8 10 12 -1.66 0.00
 9 10 12 -0.84 0.00
 -3 11 12 0.54 0.00
 -2 11 12 0.46 0.00
 -1 11 12 1.45 0.00
 3 11 12 1.95 0.00
 5 11 12 0.51 0.00
 6 11 12 -2.45 0.00
 7 11 12 -3.06 0.00
 8 11 12 -1.22 0.00
 -2 12 12 -0.24 0.00
 -1 12 12 0.05 0.00
 0 12 12 0.10 0.00
 1 12 12 -1.04 0.00
 2 12 12 -0.40 0.00
 3 12 12 1.40 0.00
 4 12 12 2.00 0.00
 5 12 12 1.25 0.00
 6 12 12 -0.64 0.00
 0 13 12 -0.60 0.00
 1 13 12 -1.39 0.00
 2 13 12 -0.49 0.00
 3 13 12 1.32 0.00
 4 13 12 1.59 0.00
 5 13 12 1.13 0.00
 -1 -10 13 0.27 0.00
 0 -10 13 0.25 0.00
 1 -10 13 0.74 0.00
 2 -10 13 0.88 0.00
 3 -10 13 0.51 0.00
 4 -10 13 -0.04 0.00
 5 -10 13 -0.37 0.00
 -2 -9 13 -0.18 0.00
 -1 -9 13 0.30 0.00
 0 -9 13 0.42 0.00
 1 -9 13 1.06 0.00
 2 -9 13 1.78 0.00
 3 -9 13 1.13 0.00
 4 -9 13 -1.04 0.00
 5 -9 13 -1.76 0.00
 6 -9 13 -0.06 0.00
 7 -9 13 0.67 0.00
 -3 -8 13 -2.01 0.00
 -2 -8 13 -1.11 0.00
 -1 -8 13 0.09 0.00
 6 -8 13 -0.85 0.00
 7 -8 13 0.33 0.00
 8 -8 13 -0.37 0.00
 -4 -7 13 -0.42 0.00
 -3 -7 13 -2.12 0.00
 7 -7 13 -0.21 0.00
 8 -7 13 -0.67 0.00
 -5 -6 13 -0.09 0.00
 -4 -6 13 0.89 0.00
 8 -6 13 -1.17 0.00
 9 -6 13 0.32 0.00
 -5 -5 13 -0.66 0.00
 -4 -5 13 1.47 0.00
 9 -5 13 0.80 0.00
 10 -5 13 -0.07 0.00
 -6 -4 13 -0.36 0.00
 -5 -4 13 -0.75 0.00
 9 -4 13 2.50 0.00
 10 -4 13 0.50 0.00
 -6 -3 13 0.16 0.00
 -5 -3 13 -0.17 0.00
 10 -3 13 1.49 0.00
 -6 -2 13 0.19 0.00
 -5 -2 13 0.59 0.00
 10 -2 13 1.70 0.00
 11 -2 13 -0.25 0.00
 -6 -1 13 -0.54 0.00
 10 -1 13 1.66 0.00
 11 -1 13 0.32 0.00
 -6 0 13 -1.17 0.00
 10 0 13 1.54 0.00
 11 0 13 0.96 0.00
 -6 1 13 -0.72 0.00
 10 1 13 0.49 0.00
 11 1 13 0.58 0.00
 -6 2 13 -0.45 0.00
 1 2 13 0.62 0.00
 10 2 13 -0.29 0.00
 11 2 13 -0.55 0.00
 -6 3 13 -1.35 0.00
 -5 3 13 -1.01 0.00
 7 3 13 0.02 0.00
 10 3 13 0.28 0.00
 11 3 13 -0.55 0.00
 -6 4 13 -2.03 0.00
 -5 4 13 -1.79 0.00
 10 4 13 0.67 0.00
 11 4 13 0.14 0.00
 -6 5 13 -1.76 0.00
 -5 5 13 -1.94 0.00
 6 5 13 -3.00 0.00
 7 5 13 -1.87 0.00
 10 5 13 0.06 0.00
 -5 6 13 -1.64 0.00
 -4 6 13 -0.72 0.00
 9 6 13 1.11 0.00
 10 6 13 -0.78 0.00
 -5 7 13 -0.66 0.00
 -4 7 13 -0.79 0.00
 3 7 13 -1.38 0.00
 9 7 13 0.27 0.00
 10 7 13 -0.92 0.00
 -4 8 13 -1.03 0.00
 -3 8 13 2.06 0.00
 3 8 13 -1.60 0.00
 8 8 13 -0.65 0.00
 9 8 13 -0.03 0.00
 -4 9 13 -1.70 0.00
 -3 9 13 0.44 0.00
 -2 9 13 3.48 0.00
 3 9 13 -0.94 0.00
 7 9 13 -0.19 0.00
 8 9 13 -0.99 0.00
 9 9 13 -0.57 0.00
 -3 10 13 -0.83 0.00
 -2 10 13 1.40 0.00
 -1 10 13 1.80 0.00
 3 10 13 0.88 0.00
 6 10 13 -1.95 0.00
 7 10 13 -1.37 0.00
 8 10 13 -0.71 0.00
 -2 11 13 0.16 0.00
 -1 11 13 1.36 0.00
 0 11 13 0.80 0.00
 1 11 13 -0.36 0.00
 2 11 13 0.52 0.00
 3 11 13 1.45 0.00
 4 11 13 0.51 0.00
 5 11 13 -1.65 0.00
 6 11 13 -3.19 0.00
 7 11 13 -2.04 0.00
 0 12 13 0.79 0.00
 1 12 13 -0.04 0.00
 2 12 13 0.11 0.00
 3 12 13 0.72 0.00
 4 12 13 0.31 0.00
 5 12 13 -1.18 0.00
 -1 -9 14 0.37 0.00
 0 -9 14 0.75 0.00
 1 -9 14 1.69 0.00
 2 -9 14 1.80 0.00
 3 -9 14 1.16 0.00
 4 -9 14 0.58 0.00
 5 -9 14 0.22 0.00
 -2 -8 14 -0.02 0.00
 -1 -8 14 0.52 0.00
 0 -8 14 0.98 0.00
 1 -8 14 1.97 0.00
 2 -8 14 2.52 0.00
 3 -8 14 1.60 0.00
 4 -8 14 -0.13 0.00
 5 -8 14 -0.54 0.00
 6 -8 14 0.49 0.00
 7 -8 14 0.54 0.00
 -3 -7 14 -1.41 0.00
 -2 -7 14 -0.58 0.00
 -1 -7 14 0.63 0.00
 0 -7 14 1.21 0.00
 5 -7 14 -0.94 0.00
 6 -7 14 0.17 0.00
 7 -7 14 0.09 0.00
 8 -7 14 -0.34 0.00
 -4 -6 14 -0.04 0.00
 -3 -6 14 -1.47 0.00
 -2 -6 14 -1.52 0.00
 7 -6 14 -0.93 0.00
 8 -6 14 -0.58 0.00
 -4 -5 14 0.80 0.00
 -3 -5 14 -0.42 0.00
 8 -5 14 -1.39 0.00
 9 -5 14 0.55 0.00
 -5 -4 14 -0.36 0.00
 -4 -4 14 1.10 0.00
 -3 -4 14 0.91 0.00
 8 -4 14 -1.49 0.00
 9 -4 14 0.70 0.00
 -5 -3 14 -0.56 0.00
 -4 -3 14 0.87 0.00
 9 -3 14 1.63 0.00
 10 -3 14 0.35 0.00
 -5 -2 14 -0.41 0.00
 -4 -2 14 0.42 0.00
 9 -2 14 1.42 0.00
 10 -2 14 0.70 0.00
 -5 -1 14 -0.21 0.00
 -4 -1 14 0.28 0.00
 9 -1 14 -0.03 0.00
 10 -1 14 0.69 0.00
 -5 0 14 -0.58 0.00
 9 0 14 -1.15 0.00
 10 0 14 1.04 0.00
 -5 1 14 -1.15 0.00
 10 1 14 0.93 0.00
 -5 2 14 -0.77 0.00
 9 2 14 -3.21 0.00
 10 2 14 -0.08 0.00
 -5 3 14 -0.25 0.00
 -4 3 14 -0.25 0.00
 -3 3 14 1.57 0.00
 -2 3 14 2.76 0.00
 -1 3 14 1.14 0.00
 0 3 14 0.04 0.00
 1 3 14 0.67 0.00
 2 3 14 0.64 0.00
 9 3 14 -1.36 0.00
 10 3 14 -0.35 0.00
 -5 4 14 -0.45 0.00
 -4 4 14 -0.22 0.00
 3 4 14 1.20 0.00
 9 4 14 1.20 0.00
 10 4 14 0.29 0.00
 -5 5 14 -0.77 0.00
 -4 5 14 -0.20 0.00
 3 5 14 1.53 0.00
 9 5 14 2.54 0.00
 10 5 14 0.80 0.00
 -4 6 14 -0.19 0.00
 -3 6 14 0.62 0.00
 3 6 14 -0.27 0.00
 8 6 14 1.43 0.00
 9 6 14 2.37 0.00
 10 6 14 0.75 0.00
 -4 7 14 -0.45 0.00
 -3 7 14 1.10 0.00
 3 7 14 -2.41 0.00
 8 7 14 -0.50 0.00
 9 7 14 1.11 0.00
 -3 8 14 1.75 0.00
 -2 8 14 2.00 0.00
 3 8 14 -3.06 0.00
 4 8 14 0.09 0.00
 7 8 14 -0.77 0.00
 8 8 14 -0.87 0.00
 9 8 14 0.48 0.00
 -3 9 14 1.37 0.00
 -2 9 14 2.70 0.00
 -1 9 14 0.11 0.00
 0 9 14 -0.86 0.00
 4 9 14 -0.95 0.00
 5 9 14 3.60 0.00
 6 9 14 3.96 0.00
 7 9 14 0.83 0.00
 8 9 14 -0.30 0.00
 -2 10 14 1.72 0.00
 -1 10 14 0.52 0.00
 0 10 14 -1.14 0.00
 1 10 14 -0.15 0.00
 2 10 14 0.21 0.00
 3 10 14 -1.48 0.00
 4 10 14 -1.40 0.00
 5 10 14 0.80 0.00
 6 10 14 1.46 0.00
 7 10 14 0.45 0.00
 0 11 14 -0.73 0.00
 1 11 14 -0.99 0.00
 2 11 14 -0.03 0.00
 3 11 14 0.02 0.00
 4 11 14 -0.35 0.00
 5 11 14 -0.58 0.00
 6 11 14 -0.90 0.00
 0 -8 15 0.78 0.00
 1 -8 15 1.93 0.00
 2 -8 15 1.65 0.00
 3 -8 15 0.51 0.00
 4 -8 15 0.05 0.00
 5 -8 15 0.10 0.00
 -1 -7 15 0.56 0.00
 0 -7 15 1.18 0.00
 1 -7 15 2.04 0.00
 2 -7 15 1.89 0.00
 3 -7 15 0.77 0.00
 4 -7 15 0.11 0.00
 5 -7 15 0.39 0.00
 6 -7 15 0.57 0.00
 -2 -6 15 0.46 0.00
 -1 -6 15 1.35 0.00
 0 -6 15 1.67 0.00
 1 -6 15 1.78 0.00
 2 -6 15 1.20 0.00
 3 -6 15 0.19 0.00
 4 -6 15 0.32 0.00
 5 -6 15 1.11 0.00
 6 -6 15 0.68 0.00
 7 -6 15 -0.44 0.00
 -3 -5 15 -0.33 0.00
 -2 -5 15 0.27 0.00
 -1 -5 15 1.12 0.00
 6 -5 15 -0.05 0.00
 7 -5 15 -1.43 0.00
 8 -5 15 -0.54 0.00
 -3 -4 15 -0.03 0.00
 -2 -4 15 -0.25 0.00
 7 -4 15 -2.86 0.00
 8 -4 15 -1.11 0.00
 9 -4 15 0.19 0.00
 -4 -3 15 0.32 0.00
 -3 -3 15 0.26 0.00
 -2 -3 15 -0.83 0.00
 7 -3 15 -2.90 0.00
 8 -3 15 -0.95 0.00
 9 -3 15 0.31 0.00
 -4 -2 15 0.21 0.00
 -3 -2 15 0.60 0.00
 8 -2 15 -0.69 0.00
 9 -2 15 0.58 0.00
 -4 -1 15 -0.04 0.00
 -3 -1 15 1.06 0.00
 8 -1 15 -1.58 0.00
 9 -1 15 -0.35 0.00
 10 -1 15 0.33 0.00
 -4 0 15 -0.27 0.00
 -3 0 15 1.67 0.00
 8 0 15 -2.27 0.00
 9 0 15 -1.27 0.00
 10 0 15 0.40 0.00
 -4 1 15 -0.86 0.00
 -3 1 15 1.37 0.00
 9 1 15 -1.89 0.00
 10 1 15 0.92 0.00
 -4 2 15 -1.38 0.00
 -3 2 15 0.26 0.00
 9 2 15 -3.35 0.00
 10 2 15 0.54 0.00
 -4 3 15 -0.89 0.00
 -3 3 15 0.34 0.00
 -2 3 15 0.62 0.00
 -1 3 15 -0.13 0.00
 0 3 15 1.04 0.00
 1 3 15 1.37 0.00
 2 3 15 -0.21 0.00
 8 3 15 -4.52 0.00
 9 3 15 -3.65 0.00
 10 3 15 -0.32 0.00
 -4 4 15 -0.27 0.00
 -3 4 15 1.13 0.00
 -2 4 15 2.20 0.00
 -1 4 15 1.08 0.00
 0 4 15 0.33 0.00
 1 4 15 0.91 0.00
 2 4 15 0.86 0.00
 3 4 15 0.08 0.00
 8 4 15 -0.97 0.00
 9 4 15 -1.73 0.00
 -4 5 15 0.01 0.00
 -3 5 15 1.21 0.00
 -2 5 15 2.89 0.00
 4 5 15 0.41 0.00
 8 5 15 1.48 0.00
 9 5 15 0.36 0.00
 -3 6 15 1.03 0.00
 -2 6 15 2.10 0.00
 4 6 15 1.42 0.00
 7 6 15 -1.24 0.00
 8 6 15 1.72 0.00
 9 6 15 1.55 0.00
 -3 7 15 0.73 0.00
 -2 7 15 0.84 0.00
 -1 7 15 -0.15 0.00
 4 7 15 0.91 0.00
 6 7 15 -2.74 0.00
 7 7 15 -2.83 0.00
 8 7 15 0.23 0.00
 -2 8 15 0.23 0.00
 -1 8 15 -1.22 0.00
 0 8 15 -1.53 0.00
 1 8 15 -2.19 0.00
 4 8 15 -0.21 0.00
 5 8 15 2.26 0.00
 6 8 15 -0.56 0.00
 7 8 15 -2.83 0.00
 8 8 15 -1.13 0.00
 -1 9 15 -0.93 0.00
 0 9 15 -0.56 0.00
 1 9 15 0.14 0.00
 2 9 15 -2.81 0.00
 3 9 15 -4.65 0.00
 4 9 15 -0.83 0.00
 5 9 15 3.15 0.00
 6 9 15 1.84 0.00
 7 9 15 -0.98 0.00
 0 10 15 -0.23 0.00
 1 10 15 0.97 0.00
 2 10 15 -0.70 0.00
 3 10 15 -3.01 0.00
 4 10 15 -1.18 0.00
 5 10 15 1.99 0.00
 1 -7 16 1.40 0.00
 2 -7 16 1.08 0.00
 3 -7 16 0.06 0.00
 4 -7 16 -0.26 0.00
 0 -6 16 0.74 0.00
 1 -6 16 1.35 0.00
 2 -6 16 1.03 0.00
 3 -6 16 0.24 0.00
 4 -6 16 0.36 0.00
 5 -6 16 0.78 0.00
 6 -6 16 0.23 0.00
 -1 -5 16 0.91 0.00
 0 -5 16 0.99 0.00
 1 -5 16 1.18 0.00
 2 -5 16 0.64 0.00
 3 -5 16 -0.04 0.00
 4 -5 16 1.00 0.00
 5 -5 16 1.87 0.00
 6 -5 16 0.59 0.00
 7 -5 16 -0.52 0.00
 -2 -4 16 0.73 0.00
 -1 -4 16 0.80 0.00
 0 -4 16 0.18 0.00
 1 -4 16 0.13 0.00
 2 -4 16 -0.28 0.00
 3 -4 16 -0.84 0.00
 4 -4 16 0.64 0.00
 5 -4 16 1.60 0.00
 6 -4 16 -0.05 0.00
 7 -4 16 -0.87 0.00
 -2 -3 16 0.13 0.00
 -1 -3 16 0.18 0.00
 0 -3 16 -0.61 0.00
 5 -3 16 -0.01 0.00
 6 -3 16 -1.52 0.00
 7 -3 16 -1.46 0.00
 8 -3 16 -0.04 0.00
 -3 -2 16 -0.45 0.00
 -2 -2 16 -0.93 0.00
 -1 -2 16 -0.81 0.00
 6 -2 16 -2.38 0.00
 7 -2 16 -1.52 0.00
 8 -2 16 0.11 0.00
 -3 -1 16 -0.15 0.00
 -2 -1 16 -1.69 0.00
 -1 -1 16 -2.13 0.00
 7 -1 16 -1.53 0.00
 8 -1 16 -0.65 0.00
 9 -1 16 0.12 0.00
 -3 0 16 0.66 0.00
 -2 0 16 -1.11 0.00
 -1 0 16 -2.34 0.00
 7 0 16 -0.83 0.00
 8 0 16 -1.91 0.00
 9 0 16 -0.99 0.00
 -3 1 16 1.32 0.00
 -2 1 16 0.39 0.00
 4 1 16 -0.40 0.00
 7 1 16 0.44 0.00
 8 1 16 -2.14 0.00
 9 1 16 -1.29 0.00
 -3 2 16 0.81 0.00
 -2 2 16 0.56 0.00
 -1 2 16 0.14 0.00
 4 2 16 -0.46 0.00
 7 2 16 -0.47 0.00
 8 2 16 -3.06 0.00
 9 2 16 -1.60 0.00
 -3 3 16 -0.05 0.00
 -2 3 16 -0.51 0.00
 -1 3 16 -0.67 0.00
 4 3 16 -0.91 0.00
 7 3 16 -2.25 0.00
 8 3 16 -4.45 0.00
 9 3 16 -2.71 0.00
 -3 4 16 -0.05 0.00
 -2 4 16 -0.53 0.00
 -1 4 16 -0.97 0.00
 0 4 16 0.28 0.00
 1 4 16 0.58 0.00
 2 4 16 -0.40 0.00
 3 4 16 -0.50 0.00
 4 4 16 -0.92 0.00
 6 4 16 -0.91 0.00
 7 4 16 -1.56 0.00
 8 4 16 -3.34 0.00
 9 4 16 -2.59 0.00
 -2 5 16 0.46 0.00
 -1 5 16 0.05 0.00
 0 5 16 0.25 0.00
 1 5 16 0.78 0.00
 2 5 16 0.45 0.00
 3 5 16 -0.14 0.00
 4 5 16 -0.79 0.00
 5 5 16 -1.77 0.00
 6 5 16 -1.37 0.00
 7 5 16 -0.20 0.00
 8 5 16 -0.82 0.00
 -2 6 16 1.17 0.00
 -1 6 16 0.83 0.00
 0 6 16 0.05 0.00
 1 6 16 0.39 0.00
 2 6 16 0.94 0.00
 4 6 16 0.08 0.00
 5 6 16 -1.82 0.00
 6 6 16 -2.38 0.00
 7 6 16 -0.27 0.00
 8 6 16 0.65 0.00
 -1 7 16 0.52 0.00
 0 7 16 -0.98 0.00
 1 7 16 -1.46 0.00
 2 7 16 -0.77 0.00
 3 7 16 0.45 0.00
 4 7 16 1.13 0.00
 5 7 16 -0.71 0.00
 6 7 16 -2.60 0.00
 7 7 16 -1.16 0.00
 0 8 16 -1.69 0.00
 1 8 16 -2.91 0.00
 2 8 16 -3.46 0.00
 3 8 16 -1.78 0.00
 4 8 16 0.91 0.00
 5 8 16 0.49 0.00
 6 8 16 -1.98 0.00
 1 9 16 -1.95 0.00
 2 9 16 -3.78 0.00
 3 9 16 -3.16 0.00
 4 9 16 0.20 0.00
 5 9 16 1.34 0.00
 0 0 0 0.00 0.00
# SQUEEZE RESULTS (Version = 21116)
# Note: Data are Listed for all Voids in the P1 Unit Cell
# i.e. Centre of Gravity, Solvent Accessible Volume,
# Recovered number of Electrons in the Void and
# Details about the Squeezed Material
;
_platon_squeeze_void_probe_radius 1.20
_olex2_submission_special_instructions 'No special instructions were received'
loop_
_space_group_symop_operation_xyz
'x, y, z'
'-x, -y, -z'
loop_
_atom_site_label
_atom_site_type_symbol
_atom_site_fract_x
_atom_site_fract_y
_atom_site_fract_z
_atom_site_U_iso_or_equiv
_atom_site_adp_type
_atom_site_occupancy
_atom_site_site_symmetry_order
_atom_site_calc_flag
_atom_site_refinement_flags_posn
_atom_site_refinement_flags_adp
Pd1 Pd 0.48544(8) 0.69945(7) 0.62918(6) 0.0501(2) Uani 1 1 d . U
N1 N 0.2538(7) 0.7374(6) 0.8578(5) 0.0496(19) Uani 1 1 d . U
O1 O 0.4460(6) 0.7881(5) 0.4997(5) 0.060(2) Uani 1 1 d . U
O2 O 0.2107(6) 0.8482(5) 0.5642(5) 0.063(2) Uani 1 1 d . U
O3 O 0.3160(7) 0.8584(6) 0.3873(5) 0.073(2) Uani 1 1 d . U
O4 O 0.6853(6) 0.7645(5) 0.5909(5) 0.066(2) Uani 1 1 d . U
P1 P 0.2928(2) 0.6141(2) 0.66534(18) 0.0436(7) Uani 1 1 d . U
S1 S 0.3077(3) 0.8046(2) 0.4827(2) 0.0557(8) Uani 1 1 d . U
S2 S 0.7066(3) 0.8783(2) 0.5465(2) 0.0688(9) Uani 1 1 d . U
C1 C 0.1356(8) 0.6749(7) 0.7389(6) 0.038(2) Uani 1 1 d . U
C2 C 0.1312(9) 0.7254(8) 0.8229(7) 0.049(2) Uani 1 1 d . U
C3 C 0.0107(10) 0.7632(9) 0.8810(8) 0.070(3) Uani 1 1 d . U
H3 H 0.010049 0.794388 0.937955 0.084 Uiso 1 1 calc R .
C4 C -0.1096(10) 0.7532(8) 0.8518(8) 0.065(3) Uani 1 1 d . U
H4 H -0.191455 0.777933 0.890247 0.078 Uiso 1 1 calc R .
C5 C -0.1104(10) 0.7084(9) 0.7687(8) 0.069(3) Uani 1 1 d . U
H5 H -0.191551 0.702817 0.749921 0.083 Uiso 1 1 calc R .
C6 C 0.0095(8) 0.6718(7) 0.7132(7) 0.050(3) Uani 1 1 d . U
H6 H 0.008556 0.643189 0.655271 0.060 Uiso 1 1 calc R .
C7 C 0.3373(9) 0.8257(7) 0.8298(7) 0.045(2) Uani 1 1 d . U
C8 C 0.3461(10) 0.9023(8) 0.7514(7) 0.058(3) Uani 1 1 d . U
H8 H 0.289652 0.900536 0.709018 0.070 Uiso 1 1 calc R .
C9 C 0.4404(10) 0.9792(9) 0.7398(8) 0.071(3) Uani 1 1 d . U
H9 H 0.451741 1.028287 0.686634 0.086 Uiso 1 1 calc R .
C10 C 0.5194(11) 0.9849(10) 0.8064(8) 0.077(3) Uani 1 1 d . U
H10 H 0.579717 1.040050 0.797777 0.092 Uiso 1 1 calc R .
C11 C 0.5123(10) 0.9125(9) 0.8845(8) 0.067(3) Uani 1 1 d . U
H11 H 0.566758 0.918390 0.927741 0.081 Uiso 1 1 calc R .
C12 C 0.4202(10) 0.8289(9) 0.8975(7) 0.063(2) Uani 1 1 d . U
C13 C 0.3814(10) 0.7410(8) 0.9698(7) 0.057(2) Uani 1 1 d . U
C14 C 0.4276(11) 0.7054(10) 1.0514(7) 0.077(3) Uani 1 1 d . U
H14 H 0.496401 0.739485 1.069026 0.092 Uiso 1 1 calc R .
C15 C 0.3694(13) 0.6206(11) 1.1030(9) 0.103(4) Uani 1 1 d . U
H15 H 0.401402 0.596097 1.156778 0.124 Uiso 1 1 calc R .
C16 C 0.2677(13) 0.5669(9) 1.0839(8) 0.082(3) Uani 1 1 d . U
H16 H 0.229914 0.509783 1.125178 0.098 Uiso 1 1 calc R .
C17 C 0.2178(12) 0.5992(9) 0.9984(8) 0.075(3) Uani 1 1 d . U
H17 H 0.151678 0.562899 0.979841 0.091 Uiso 1 1 calc R .
C18 C 0.2792(9) 0.6912(8) 0.9460(6) 0.051(2) Uani 1 1 d . U
C19 C 0.2439(9) 0.5913(8) 0.5511(6) 0.044(2) Uani 1 1 d . U
C20 C 0.2511(8) 0.6747(8) 0.4762(6) 0.044(2) Uani 1 1 d . U
C21 C 0.2123(10) 0.6542(8) 0.3909(7) 0.056(3) Uani 1 1 d . U
H21 H 0.214099 0.708049 0.342623 0.067 Uiso 1 1 calc R .
C22 C 0.1723(9) 0.5567(8) 0.3783(7) 0.056(3) Uani 1 1 d . U
H22 H 0.145378 0.544979 0.322146 0.067 Uiso 1 1 calc R .
C23 C 0.1715(10) 0.4752(9) 0.4481(7) 0.059(3) Uani 1 1 d . U
H23 H 0.148557 0.408142 0.437072 0.071 Uiso 1 1 calc R .
C24 C 0.2042(9) 0.4917(8) 0.5338(7) 0.051(2) Uani 1 1 d . U
H24 H 0.200078 0.436179 0.580907 0.062 Uiso 1 1 calc R .
C25 C 0.2874(9) 0.4808(7) 0.7247(6) 0.044(2) Uani 1 1 d . U
C26 C 0.4020(10) 0.4104(8) 0.6926(7) 0.061(3) Uani 1 1 d . U
H26 H 0.476859 0.433990 0.644312 0.073 Uiso 1 1 calc R .
C27 C 0.4019(11) 0.3084(8) 0.7326(7) 0.068(3) Uani 1 1 d . U
H27 H 0.476739 0.263753 0.711470 0.082 Uiso 1 1 calc R .
C28 C 0.2907(12) 0.2721(10) 0.8044(8) 0.078(3) Uani 1 1 d . U
H28 H 0.291340 0.203238 0.831413 0.093 Uiso 1 1 calc R .
C29 C 0.1812(12) 0.3362(9) 0.8354(8) 0.081(4) Uani 1 1 d . U
H29 H 0.106688 0.310265 0.882693 0.097 Uiso 1 1 calc R .
C30 C 0.1776(10) 0.4410(9) 0.7977(7) 0.065(3) Uani 1 1 d . U
H30 H 0.102216 0.484206 0.821191 0.078 Uiso 1 1 calc R .
C31 C 0.8495(10) 0.9190(9) 0.5866(9) 0.086(4) Uani 1 1 d . U
H31A H 0.917199 0.863250 0.580549 0.129 Uiso 1 1 calc GR .
H31B H 0.820007 0.935409 0.653369 0.129 Uiso 1 1 calc GR .
H31C H 0.887963 0.980342 0.547413 0.129 Uiso 1 1 calc GR .
C32 C 0.7954(14) 0.8665(11) 0.4246(9) 0.109(5) Uani 1 1 d . U
H32A H 0.872625 0.819431 0.422242 0.164 Uiso 1 1 calc GR .
H32B H 0.826338 0.934472 0.395374 0.164 Uiso 1 1 calc GR .
H32C H 0.735841 0.839309 0.389818 0.164 Uiso 1 1 calc GR .
C33 C 0.5416(9) 0.6245(8) 0.7452(6) 0.060(3) Uani 1 1 d . U
H33A H 0.621695 0.581387 0.722824 0.090 Uiso 1 1 calc GR .
H33B H 0.468696 0.581043 0.782005 0.090 Uiso 1 1 calc GR .
H33C H 0.561099 0.675659 0.785696 0.090 Uiso 1 1 calc GR .
loop_
_atom_site_aniso_label
_atom_site_aniso_U_11
_atom_site_aniso_U_22
_atom_site_aniso_U_33
_atom_site_aniso_U_23
_atom_site_aniso_U_13
_atom_site_aniso_U_12
Pd1 0.0399(4) 0.0507(5) 0.0599(5) 0.0017(4) -0.0148(3) 0.0010(3)
N1 0.054(3) 0.057(4) 0.040(4) -0.003(3) -0.017(3) 0.000(3)
O1 0.053(3) 0.060(4) 0.068(4) 0.011(4) -0.019(3) -0.011(3)
O2 0.061(4) 0.065(4) 0.067(4) -0.011(4) -0.023(3) 0.001(3)
O3 0.104(5) 0.058(5) 0.058(4) 0.015(4) -0.025(4) -0.009(4)
O4 0.047(4) 0.045(4) 0.102(5) 0.017(4) -0.015(4) 0.000(3)
P1 0.0442(14) 0.0486(16) 0.0382(14) -0.0026(13) -0.0112(12) 0.0022(12)
S1 0.0602(16) 0.0504(16) 0.0572(17) 0.0056(14) -0.0188(13) -0.0020(13)
S2 0.0532(15) 0.0556(18) 0.099(2) 0.0121(17) -0.0261(15) -0.0021(13)
C1 0.030(4) 0.046(5) 0.036(4) 0.003(3) -0.006(3) -0.001(4)
C2 0.044(4) 0.057(6) 0.048(4) -0.004(4) -0.017(3) 0.005(4)
C3 0.059(4) 0.088(8) 0.063(6) -0.028(6) -0.010(4) 0.008(5)
C4 0.040(4) 0.074(7) 0.074(5) -0.014(5) 0.000(4) 0.006(5)
C5 0.034(4) 0.103(8) 0.071(5) -0.012(5) -0.013(4) 0.011(5)
C6 0.045(4) 0.062(6) 0.048(5) -0.014(5) -0.017(3) -0.003(4)
C7 0.039(4) 0.051(5) 0.045(4) -0.010(4) -0.008(3) 0.009(3)
C8 0.057(5) 0.062(6) 0.057(5) 0.007(4) -0.019(4) -0.003(4)
C9 0.056(5) 0.065(6) 0.091(6) 0.018(6) -0.021(4) -0.002(4)
C10 0.061(6) 0.085(7) 0.083(6) -0.002(5) -0.018(4) -0.009(5)
C11 0.062(5) 0.072(6) 0.078(6) -0.016(5) -0.032(5) 0.001(4)
C12 0.058(5) 0.075(5) 0.062(5) -0.002(4) -0.029(3) -0.005(4)
C13 0.067(5) 0.066(5) 0.047(4) -0.011(4) -0.029(3) 0.002(4)
C14 0.081(6) 0.098(7) 0.066(5) 0.006(5) -0.049(4) -0.010(5)
C15 0.128(7) 0.118(8) 0.077(7) 0.029(6) -0.058(5) -0.023(5)
C16 0.127(7) 0.056(7) 0.065(6) 0.020(5) -0.032(5) -0.014(5)
C17 0.099(7) 0.068(6) 0.065(5) 0.001(5) -0.030(4) -0.017(5)
C18 0.064(5) 0.056(5) 0.040(4) -0.005(4) -0.026(3) 0.006(4)
C19 0.041(5) 0.056(5) 0.034(4) -0.003(3) -0.006(4) 0.001(4)
C20 0.038(5) 0.062(5) 0.033(4) -0.006(3) -0.009(3) 0.000(4)
C21 0.069(6) 0.067(5) 0.037(4) -0.008(4) -0.020(4) 0.000(4)
C22 0.059(6) 0.067(5) 0.046(5) -0.016(4) -0.021(4) 0.003(4)
C23 0.065(6) 0.066(5) 0.048(4) -0.010(4) -0.015(4) -0.002(5)
C24 0.053(5) 0.057(5) 0.043(4) -0.011(4) -0.007(4) -0.007(4)
C25 0.048(4) 0.050(5) 0.032(5) 0.001(4) -0.010(4) 0.000(3)
C26 0.052(5) 0.067(5) 0.062(6) 0.014(5) -0.017(5) 0.005(4)
C27 0.079(6) 0.059(5) 0.065(7) 0.008(5) -0.024(5) 0.021(5)
C28 0.097(6) 0.070(6) 0.065(7) 0.011(6) -0.025(5) 0.004(5)
C29 0.085(6) 0.074(6) 0.072(8) 0.024(5) -0.008(6) -0.006(5)
C30 0.051(5) 0.071(5) 0.066(7) 0.020(5) -0.009(4) -0.006(5)
C31 0.056(6) 0.071(8) 0.135(9) 0.008(7) -0.035(6) -0.003(5)
C32 0.120(11) 0.120(12) 0.081(7) 0.002(7) -0.015(7) -0.001(9)
C33 0.058(6) 0.076(8) 0.051(6) 0.001(5) -0.026(5) 0.001(5)
loop_
_atom_type_symbol
_atom_type_description
_atom_type_scat_dispersion_real
_atom_type_scat_dispersion_imag
_atom_type_scat_source
C C 0.0033 0.0016 'International Tables Vol C Tables 4.2.6.8 and 6.1.1.4'
H H 0.0000 0.0000 'International Tables Vol C Tables 4.2.6.8 and 6.1.1.4'
N N 0.0061 0.0033 'International Tables Vol C Tables 4.2.6.8 and 6.1.1.4'
O O 0.0106 0.0060 'International Tables Vol C Tables 4.2.6.8 and 6.1.1.4'
P P 0.1023 0.0942 'International Tables Vol C Tables 4.2.6.8 and 6.1.1.4'
Pd Pd -0.9988 1.0072 'International Tables Vol C Tables 4.2.6.8 and 6.1.1.4'
S S 0.1246 0.1234 'International Tables Vol C Tables 4.2.6.8 and 6.1.1.4'
loop_
_geom_angle_atom_site_label_1
_geom_angle_atom_site_label_2
_geom_angle_atom_site_label_3
_geom_angle
O1 Pd1 P1 95.13(17)
O4 Pd1 O1 87.8(2)
O4 Pd1 P1 173.09(19)
C33 Pd1 O1 173.9(3)
C33 Pd1 O4 86.1(3)
C33 Pd1 P1 90.9(3)
C7 N1 C2 122.5(8)
C7 N1 C18 107.1(8)
C18 N1 C2 126.4(7)
S1 O1 Pd1 123.2(4)
S2 O4 Pd1 120.3(4)
C1 P1 Pd1 120.0(3)
C1 P1 C19 102.6(4)
C19 P1 Pd1 109.1(3)
C25 P1 Pd1 119.3(3)
C25 P1 C1 101.4(4)
C25 P1 C19 101.8(4)
O1 S1 C20 104.4(4)
O2 S1 O1 112.8(4)
O2 S1 O3 116.5(4)
O2 S1 C20 105.9(4)
O3 S1 O1 110.2(4)
O3 S1 C20 106.0(4)
O4 S2 C31 103.4(5)
O4 S2 C32 105.0(6)
C32 S2 C31 96.0(6)
C2 C1 P1 123.5(7)
C2 C1 C6 115.2(8)
C6 C1 P1 121.3(7)
C1 C2 N1 121.8(8)
C3 C2 N1 115.6(9)
C3 C2 C1 122.6(9)
C2 C3 H3 120.9
C2 C3 C4 118.2(10)
C4 C3 H3 120.9
C3 C4 H4 119.2
C5 C4 C3 121.6(10)
C5 C4 H4 119.2
C4 C5 H5 120.6
C4 C5 C6 118.8(10)
C6 C5 H5 120.6
C1 C6 H6 118.3
C5 C6 C1 123.5(9)
C5 C6 H6 118.3
N1 C7 C8 130.4(9)
N1 C7 C12 107.8(8)
C8 C7 C12 121.9(9)
C7 C8 H8 121.0
C9 C8 C7 117.9(10)
C9 C8 H8 121.0
C8 C9 H9 119.6
C8 C9 C10 120.8(11)
C10 C9 H9 119.6
C9 C10 H10 118.6
C11 C10 C9 122.8(11)
C11 C10 H10 118.6
C10 C11 H11 120.8
C10 C11 C12 118.4(11)
C12 C11 H11 120.8
C7 C12 C13 107.2(9)
C11 C12 C7 118.0(9)
C11 C12 C13 134.7(10)
C14 C13 C12 132.6(10)
C18 C13 C12 106.8(9)
C18 C13 C14 120.6(10)
C13 C14 H14 121.3
C15 C14 C13 117.3(11)
C15 C14 H14 121.3
C14 C15 H15 117.2
C14 C15 C16 125.6(12)
C16 C15 H15 117.2
C15 C16 H16 120.3
C15 C16 C17 119.4(11)
C17 C16 H16 120.3
C16 C17 H17 123.0
C18 C17 C16 113.9(10)
C18 C17 H17 123.0
C13 C18 N1 110.9(8)
C13 C18 C17 123.1(9)
C17 C18 N1 125.7(9)
C20 C19 P1 120.5(7)
C24 C19 P1 121.4(7)
C24 C19 C20 118.1(9)
C19 C20 S1 124.4(7)
C21 C20 S1 116.9(7)
C21 C20 C19 118.6(9)
C20 C21 H21 119.5
C22 C21 C20 121.0(9)
C22 C21 H21 119.5
C21 C22 H22 119.8
C21 C22 C23 120.4(10)
C23 C22 H22 119.8
C22 C23 H23 119.5
C24 C23 C22 120.9(10)
C24 C23 H23 119.5
C19 C24 H24 119.6
C23 C24 C19 120.8(9)
C23 C24 H24 119.6
C26 C25 P1 118.2(6)
C30 C25 P1 124.6(7)
C30 C25 C26 117.2(9)
C25 C26 H26 119.6
C27 C26 C25 120.7(9)
C27 C26 H26 119.6
C26 C27 H27 119.9
C26 C27 C28 120.2(10)
C28 C27 H27 119.9
C27 C28 H28 119.8
C29 C28 C27 120.4(11)
C29 C28 H28 119.8
C28 C29 H29 119.3
C28 C29 C30 121.4(10)
C30 C29 H29 119.3
C25 C30 C29 120.2(10)
C25 C30 H30 119.9
C29 C30 H30 119.9
S2 C31 H31A 109.5
S2 C31 H31B 109.5
S2 C31 H31C 109.5
H31A C31 H31B 109.5
H31A C31 H31C 109.5
H31B C31 H31C 109.5
S2 C32 H32A 109.5
S2 C32 H32B 109.5
S2 C32 H32C 109.5
H32A C32 H32B 109.5
H32A C32 H32C 109.5
H32B C32 H32C 109.5
Pd1 C33 H33A 109.5
Pd1 C33 H33B 109.5
Pd1 C33 H33C 109.5
H33A C33 H33B 109.5
H33A C33 H33C 109.5
H33B C33 H33C 109.5
loop_
_geom_bond_atom_site_label_1
_geom_bond_atom_site_label_2
_geom_bond_distance
Pd1 O1 2.197(7)
Pd1 O4 2.143(6)
Pd1 P1 2.198(3)
Pd1 C33 2.033(9)
N1 C2 1.462(11)
N1 C7 1.407(11)
N1 C18 1.420(11)
O1 S1 1.481(7)
O2 S1 1.453(7)
O3 S1 1.456(7)
O4 S2 1.537(7)
P1 C1 1.851(8)
P1 C19 1.859(10)
P1 C25 1.834(9)
S1 C20 1.790(10)
S2 C31 1.789(11)
S2 C32 1.760(12)
C1 C2 1.391(12)
C1 C6 1.414(12)
C2 C3 1.385(12)
C3 H3 0.9300
C3 C4 1.392(14)
C4 H4 0.9300
C4 C5 1.355(15)
C5 H5 0.9300
C5 C6 1.360(12)
C6 H6 0.9300
C7 C8 1.411(12)
C7 C12 1.429(13)
C8 H8 0.9300
C8 C9 1.367(14)
C9 H9 0.9300
C9 C10 1.390(15)
C10 H10 0.9300
C10 C11 1.378(14)
C11 H11 0.9300
C11 C12 1.415(14)
C12 C13 1.457(13)
C13 C14 1.392(14)
C13 C18 1.360(13)
C14 H14 0.9300
C14 C15 1.330(15)
C15 H15 0.9300
C15 C16 1.350(17)
C16 H16 0.9300
C16 C17 1.453(15)
C17 H17 0.9300
C17 C18 1.417(13)
C19 C20 1.435(12)
C19 C24 1.405(13)
C20 C21 1.411(13)
C21 H21 0.9300
C21 C22 1.361(14)
C22 H22 0.9300
C22 C23 1.378(13)
C23 H23 0.9300
C23 C24 1.373(13)
C24 H24 0.9300
C25 C26 1.440(13)
C25 C30 1.400(12)
C26 H26 0.9300
C26 C27 1.377(13)
C27 H27 0.9300
C27 C28 1.387(13)
C28 H28 0.9300
C28 C29 1.352(15)
C29 H29 0.9300
C29 C30 1.402(14)
C30 H30 0.9300
C31 H31A 0.9600
C31 H31B 0.9600
C31 H31C 0.9600
C32 H32A 0.9600
C32 H32B 0.9600
C32 H32C 0.9600
C33 H33A 0.9600
C33 H33B 0.9600
C33 H33C 0.9600
loop_
_geom_torsion_atom_site_label_1
_geom_torsion_atom_site_label_2
_geom_torsion_atom_site_label_3
_geom_torsion_atom_site_label_4
_geom_torsion
Pd1 O1 S1 O2 52.7(6)
Pd1 O1 S1 O3 -175.2(4)
Pd1 O1 S1 C20 -61.8(5)
Pd1 O4 S2 C31 150.0(5)
Pd1 O4 S2 C32 -109.8(6)
Pd1 P1 C1 C2 -45.4(8)
Pd1 P1 C1 C6 135.3(6)
Pd1 P1 C19 C20 -45.4(7)
Pd1 P1 C19 C24 132.0(7)
Pd1 P1 C25 C26 -40.2(9)
Pd1 P1 C25 C30 141.6(8)
N1 C2 C3 C4 -179.6(9)
N1 C7 C8 C9 -178.3(9)
N1 C7 C12 C11 -179.3(9)
N1 C7 C12 C13 -1.7(10)
O1 S1 C20 C19 56.3(8)
O1 S1 C20 C21 -123.3(7)
O2 S1 C20 C19 -63.0(8)
O2 S1 C20 C21 117.4(7)
O3 S1 C20 C19 172.7(7)
O3 S1 C20 C21 -6.9(8)
P1 C1 C2 N1 2.2(12)
P1 C1 C2 C3 -174.9(8)
P1 C1 C6 C5 175.0(8)
P1 C19 C20 S1 0.8(10)
P1 C19 C20 C21 -179.6(7)
P1 C19 C24 C23 -178.4(7)
P1 C25 C26 C27 -178.2(8)
P1 C25 C30 C29 177.2(9)
S1 C20 C21 C22 177.8(7)
C1 P1 C19 C20 82.9(7)
C1 P1 C19 C24 -99.7(8)
C1 P1 C25 C26 -174.5(8)
C1 P1 C25 C30 7.3(10)
C1 C2 C3 C4 -2.3(15)
C2 N1 C7 C8 -17.3(14)
C2 N1 C7 C12 162.5(8)
C2 N1 C18 C13 -162.4(9)
C2 N1 C18 C17 23.5(15)
C2 C1 C6 C5 -4.3(14)
C2 C3 C4 C5 -0.3(16)
C3 C4 C5 C6 0.5(17)
C4 C5 C6 C1 2.0(16)
C6 C1 C2 N1 -178.5(8)
C6 C1 C2 C3 4.4(13)
C7 N1 C2 C1 90.7(11)
C7 N1 C2 C3 -92.0(11)
C7 N1 C18 C13 -4.8(10)
C7 N1 C18 C17 -178.9(9)
C7 C8 C9 C10 -3.5(16)
C7 C12 C13 C14 179.6(11)
C7 C12 C13 C18 -1.2(11)
C8 C7 C12 C11 0.5(14)
C8 C7 C12 C13 178.1(9)
C8 C9 C10 C11 2.8(17)
C9 C10 C11 C12 -0.2(16)
C10 C11 C12 C7 -1.4(15)
C10 C11 C12 C13 -178.1(11)
C11 C12 C13 C14 -3(2)
C11 C12 C13 C18 175.8(11)
C12 C7 C8 C9 1.9(14)
C12 C13 C14 C15 -179.8(12)
C12 C13 C18 N1 3.7(11)
C12 C13 C18 C17 177.9(9)
C13 C14 C15 C16 -1(2)
C14 C13 C18 N1 -177.0(9)
C14 C13 C18 C17 -2.7(16)
C14 C15 C16 C17 3(2)
C15 C16 C17 C18 -3.7(16)
C16 C17 C18 N1 177.3(9)
C16 C17 C18 C13 3.9(15)
C18 N1 C2 C1 -114.9(10)
C18 N1 C2 C3 62.4(13)
C18 N1 C7 C8 -175.9(9)
C18 N1 C7 C12 3.9(10)
C18 C13 C14 C15 1.1(16)
C19 P1 C1 C2 -166.5(8)
C19 P1 C1 C6 14.2(8)
C19 P1 C25 C26 79.8(8)
C19 P1 C25 C30 -98.4(9)
C19 C20 C21 C22 -1.8(13)
C20 C19 C24 C23 -0.9(13)
C20 C21 C22 C23 -1.3(14)
C21 C22 C23 C24 3.3(15)
C22 C23 C24 C19 -2.2(14)
C24 C19 C20 S1 -176.7(7)
C24 C19 C20 C21 2.9(12)
C25 P1 C1 C2 88.5(8)
C25 P1 C1 C6 -90.8(8)
C25 P1 C19 C20 -172.4(7)
C25 P1 C19 C24 5.0(8)
C25 C26 C27 C28 0.2(17)
C26 C25 C30 C29 -1.0(15)
C26 C27 C28 C29 0.3(18)
C27 C28 C29 C30 -1.2(19)
C28 C29 C30 C25 1.6(18)
C30 C25 C26 C27 0.1(15)
loop_
_platon_squeeze_void_nr
_platon_squeeze_void_average_x
_platon_squeeze_void_average_y
_platon_squeeze_void_average_z
_platon_squeeze_void_volume
_platon_squeeze_void_count_electrons
_platon_squeeze_void_content
1 0.000 0.000 0.000 260 67 ' '
loop_
_platon_missing_refln_index_h
_platon_missing_refln_index_k
_platon_missing_refln_index_l
_platon_missing_refln_theta
1 0 0 2.080
0 1 0 1.603
-1 -4 1 7.081
0 0 1 1.480
0 1 1 2.103
0 0 2 2.962
0 1 2 3.266
1 2 3 5.248
1 3 6 9.570
